<?xml version="1.0" encoding="UTF-8"?>

<!-- generated on 2024-09-22 21:29:26.821493 by osmWebWizard.py UNKNOWN
<configuration>
    <net-file value="/opt/homebrew/Cellar/sumo/1.20.0/share/sumo/tools/2024-09-22-21-29-10/osm.net.xml.gz"/>
    <output-trip-file value="/opt/homebrew/Cellar/sumo/1.20.0/share/sumo/tools/2024-09-22-21-29-10/osm.passenger.trips.xml"/>
    <route-file value="/opt/homebrew/Cellar/sumo/1.20.0/share/sumo/tools/2024-09-22-21-29-10/osm.passenger.rou.xml"/>
    <prefix value="veh"/>
    <trip-attributes value="departLane=&quot;best&quot;"/>
    <fringe-start-attributes value="departSpeed=&quot;max&quot;"/>
    <vehicle-class value="passenger"/>
    <lanes value="True"/>
    <fringe-factor value="5"/>
    <allow-fringe.min-length value="1000.0"/>
    <via-edge-types value="highway.motorway,highway.motorway_link,highway.trunk_link,highway.primary_link,highway.secondary_link,highway.tertiary_link"/>
    <min-distance value="300.0"/>
    <min-distance.fringe value="10.0"/>
    <remove-loops value="True"/>
    <validate value="True"/>
    <insertion-density value="12.0"/>
</configuration>
-->

<!-- generated on 2024-09-22 21:29:26 by Eclipse SUMO duarouter Version 1.20.0
<configuration xmlns:xsi="http://www.w3.org/2001/XMLSchema-instance" xsi:noNamespaceSchemaLocation="http://sumo.dlr.de/xsd/duarouterConfiguration.xsd">

    <input>
        <net-file value="/opt/homebrew/Cellar/sumo/1.20.0/share/sumo/tools/2024-09-22-21-29-10/osm.net.xml.gz"/>
        <route-files value="/opt/homebrew/Cellar/sumo/1.20.0/share/sumo/tools/2024-09-22-21-29-10/osm.passenger.trips.xml"/>
    </input>

    <output>
        <output-file value="/opt/homebrew/Cellar/sumo/1.20.0/share/sumo/tools/2024-09-22-21-29-10/osm.passenger.trips.xml.tmp"/>
        <alternatives-output value="NUL"/>
        <write-trips value="true"/>
    </output>

    <processing>
        <remove-loops value="true"/>
    </processing>

    <time>
        <begin value="0.0"/>
        <end value="3600.0"/>
    </time>

    <report>
        <no-warnings value="true"/>
        <ignore-errors value="true"/>
        <no-step-log value="true"/>
    </report>

</configuration>
-->

<routes xmlns:xsi="http://www.w3.org/2001/XMLSchema-instance" xsi:noNamespaceSchemaLocation="http://sumo.dlr.de/xsd/routes_file.xsd">
    <vType id="veh_passenger" vClass="passenger"/>
    <trip id="veh0" type="veh_passenger" depart="0.00" departLane="best" from="22972219#0" to="1114798610#1"/>
    <trip id="veh2" type="veh_passenger" depart="12.96" departLane="best" from="312357351#3" to="292429062#1"/>
    <trip id="veh3" type="veh_passenger" depart="19.43" departLane="best" from="-492340367#3" to="-1218225317#4"/>
    <trip id="veh4" type="veh_passenger" depart="25.91" departLane="best" departSpeed="max" from="1133761786" to="-111833185#0"/>
    <trip id="veh5" type="veh_passenger" depart="32.39" departLane="best" from="-454285423#3" to="168937986"/>
    <trip id="veh6" type="veh_passenger" depart="38.87" departLane="best" from="-1119933622" to="454285423#2"/>
    <trip id="veh7" type="veh_passenger" depart="45.35" departLane="best" from="236092221#0" to="194962375#2"/>
    <trip id="veh10" type="veh_passenger" depart="64.78" departLane="best" from="-4402014#2" to="301610520#1"/>
    <trip id="veh11" type="veh_passenger" depart="71.26" departLane="best" from="1102154080#2" to="25294728#0"/>
    <trip id="veh12" type="veh_passenger" depart="77.74" departLane="best" from="-7917219#1" to="1105526112#1"/>
    <trip id="veh13" type="veh_passenger" depart="84.22" departLane="best" departSpeed="max" from="66071379#1" to="155186522#0"/>
    <trip id="veh14" type="veh_passenger" depart="90.69" departLane="best" from="4612961#1" to="23809678#8"/>
    <trip id="veh15" type="veh_passenger" depart="97.17" departLane="best" from="-4402014#3" to="31313667#1"/>
    <trip id="veh16" type="veh_passenger" depart="103.65" departLane="best" from="136571494#1" to="82658671#2"/>
    <trip id="veh17" type="veh_passenger" depart="110.13" departLane="best" from="1121011269#2" to="195397541#4"/>
    <trip id="veh18" type="veh_passenger" depart="116.61" departLane="best" from="4610479#2" to="23851930"/>
    <trip id="veh19" type="veh_passenger" depart="123.08" departLane="best" from="4612973#1" to="4773465#2"/>
    <trip id="veh20" type="veh_passenger" depart="129.56" departLane="best" from="-292429063#2" to="-1127597264#0"/>
    <trip id="veh21" type="veh_passenger" depart="136.04" departLane="best" from="4610375#0" to="100405009#2"/>
    <trip id="veh22" type="veh_passenger" depart="142.52" departLane="best" from="-1198409426#2" to="-461526153#0"/>
    <trip id="veh23" type="veh_passenger" depart="149.00" departLane="best" from="155186522#0" to="-84960597#2"/>
    <trip id="veh24" type="veh_passenger" depart="155.48" departLane="best" from="-225400578#1" to="1119936840#1"/>
    <trip id="veh25" type="veh_passenger" depart="161.95" departLane="best" from="1119854969#1" to="4610524#0"/>
    <trip id="veh26" type="veh_passenger" depart="168.43" departLane="best" from="-505475202" to="66311464#1"/>
    <trip id="veh27" type="veh_passenger" depart="174.91" departLane="best" from="-1121012037#0" to="23851930"/>
    <trip id="veh28" type="veh_passenger" depart="181.39" departLane="best" from="-25294728#0" to="31313667#0"/>
    <trip id="veh29" type="veh_passenger" depart="187.87" departLane="best" from="24243107#2" to="112128419#2"/>
    <trip id="veh30" type="veh_passenger" depart="194.34" departLane="best" from="831860726" to="24540242#2"/>
    <trip id="veh32" type="veh_passenger" depart="207.30" departLane="best" from="-979668824#0" to="-755551646#0"/>
    <trip id="veh33" type="veh_passenger" depart="213.78" departLane="best" from="437325048#0" to="68647306#2"/>
    <trip id="veh34" type="veh_passenger" depart="220.26" departLane="best" from="465376255#0" to="1079495669#1"/>
    <trip id="veh35" type="veh_passenger" depart="226.73" departLane="best" from="23809678#4" to="-1126465845"/>
    <trip id="veh36" type="veh_passenger" depart="233.21" departLane="best" from="606078065" to="1179820253#1"/>
    <trip id="veh37" type="veh_passenger" depart="239.69" departLane="best" from="492340367#0" to="-534588621#1"/>
    <trip id="veh38" type="veh_passenger" depart="246.17" departLane="best" departSpeed="max" from="165415464#0" to="-750204886#0"/>
    <trip id="veh40" type="veh_passenger" depart="259.13" departLane="best" from="1127597264#1" to="-4612966"/>
    <trip id="veh41" type="veh_passenger" depart="265.60" departLane="best" from="-902316106#1" to="-168940071#6"/>
    <trip id="veh43" type="veh_passenger" depart="278.56" departLane="best" from="-168940071#5" to="24243092#1"/>
    <trip id="veh44" type="veh_passenger" depart="285.04" departLane="best" from="42103020#2" to="1134013286"/>
    <trip id="veh45" type="veh_passenger" depart="291.52" departLane="best" from="-1155226001#0" to="-1123106898#1"/>
    <trip id="veh46" type="veh_passenger" depart="297.99" departLane="best" from="1102154080#1" to="312176585"/>
    <trip id="veh47" type="veh_passenger" depart="304.47" departLane="best" from="24993933#1" to="190447767"/>
    <trip id="veh48" type="veh_passenger" depart="310.95" departLane="best" from="-505475202" to="24540242#2"/>
    <trip id="veh50" type="veh_passenger" depart="323.91" departLane="best" from="-465376254#3" to="-751595928#1"/>
    <trip id="veh51" type="veh_passenger" depart="330.39" departLane="best" departSpeed="max" from="1195383176" to="-339201185"/>
    <trip id="veh52" type="veh_passenger" depart="336.86" departLane="best" from="-560370523" to="46140376#1"/>
    <trip id="veh53" type="veh_passenger" depart="343.34" departLane="best" from="-8008608" to="24540242#2"/>
    <trip id="veh54" type="veh_passenger" depart="349.82" departLane="best" from="195397541#3" to="24992424#3"/>
    <trip id="veh55" type="veh_passenger" depart="356.30" departLane="best" from="340498976#7" to="-194069450#1"/>
    <trip id="veh56" type="veh_passenger" depart="362.78" departLane="best" from="374734389#0" to="19002357#1"/>
    <trip id="veh57" type="veh_passenger" depart="369.25" departLane="best" from="-1024034687#0" to="1101961674#3"/>
    <trip id="veh58" type="veh_passenger" depart="375.73" departLane="best" from="-111251382#3" to="61584187#1"/>
    <trip id="veh59" type="veh_passenger" depart="382.21" departLane="best" from="4773029#2" to="4610476#2"/>
    <trip id="veh60" type="veh_passenger" depart="388.69" departLane="best" from="-874528353#3" to="1151064405#1"/>
    <trip id="veh61" type="veh_passenger" depart="395.17" departLane="best" from="4773029#1" to="690322561"/>
    <trip id="veh63" type="veh_passenger" depart="408.12" departLane="best" from="-1159156576#0" to="340498988#0"/>
    <trip id="veh64" type="veh_passenger" depart="414.60" departLane="best" from="340498988#0" to="-195397541#2"/>
    <trip id="veh65" type="veh_passenger" depart="421.08" departLane="best" departSpeed="max" from="1155757392" to="195397541#0"/>
    <trip id="veh66" type="veh_passenger" depart="427.56" departLane="best" from="-492340367#1" to="461526152#1"/>
    <trip id="veh67" type="veh_passenger" depart="434.04" departLane="best" departSpeed="max" from="1133761786" to="4610607#0"/>
    <trip id="veh68" type="veh_passenger" depart="440.51" departLane="best" from="139877314#1" to="-31313667#1"/>
    <trip id="veh69" type="veh_passenger" depart="446.99" departLane="best" from="370359204#1" to="1040930907#4"/>
    <trip id="veh70" type="veh_passenger" depart="453.47" departLane="best" from="882389494#1" to="-24992424#2"/>
    <trip id="veh71" type="veh_passenger" depart="459.95" departLane="best" departSpeed="max" from="1133761788" to="169660686#1"/>
    <trip id="veh73" type="veh_passenger" depart="472.90" departLane="best" from="-4610480#1" to="-4612966"/>
    <trip id="veh74" type="veh_passenger" depart="479.38" departLane="best" from="23809670#1" to="243854725#1"/>
    <trip id="veh75" type="veh_passenger" depart="485.86" departLane="best" from="-4610472#0" to="-534588621#0"/>
    <trip id="veh76" type="veh_passenger" depart="492.34" departLane="best" departSpeed="max" from="4612970#0" to="-1173516144#0"/>
    <trip id="veh77" type="veh_passenger" depart="498.82" departLane="best" from="4611694#1" to="289830064#0"/>
    <trip id="veh78" type="veh_passenger" depart="505.30" departLane="best" from="-4402014#3" to="-202817674#3"/>
    <trip id="veh79" type="veh_passenger" depart="511.77" departLane="best" from="68647306#7" to="202156994#0"/>
    <trip id="veh82" type="veh_passenger" depart="531.21" departLane="best" from="-136571494#0" to="1151064388#2"/>
    <trip id="veh83" type="veh_passenger" depart="537.69" departLane="best" departSpeed="max" from="1133761786" to="1218225317#2"/>
    <trip id="veh84" type="veh_passenger" depart="544.16" departLane="best" from="-310176513#2" to="289966845"/>
    <trip id="veh85" type="veh_passenger" depart="550.64" departLane="best" from="830728708#4" to="155186522#1"/>
    <trip id="veh86" type="veh_passenger" depart="557.12" departLane="best" from="1132678575#2" to="11103418#3"/>
    <trip id="veh87" type="veh_passenger" depart="563.60" departLane="best" from="4612973#1" to="-6228081#1"/>
    <trip id="veh88" type="veh_passenger" depart="570.08" departLane="best" from="-326116285#3" to="1159142856#1"/>
    <trip id="veh89" type="veh_passenger" depart="576.55" departLane="best" departSpeed="max" from="1133761786" to="-84960597#2"/>
    <trip id="veh90" type="veh_passenger" depart="583.03" departLane="best" departSpeed="max" from="-4612974#1" to="61583424#1"/>
    <trip id="veh91" type="veh_passenger" depart="589.51" departLane="best" departSpeed="max" from="1133761788" to="4612974#0"/>
    <trip id="veh92" type="veh_passenger" depart="595.99" departLane="best" from="-155186522#1" to="-1134013286"/>
    <trip id="veh93" type="veh_passenger" depart="602.47" departLane="best" from="-930343901#1" to="4610524#0"/>
    <trip id="veh94" type="veh_passenger" depart="608.95" departLane="best" from="-82658671#1" to="61583423#1"/>
    <trip id="veh95" type="veh_passenger" depart="615.42" departLane="best" departSpeed="max" from="1170522574" to="4611693#1"/>
    <trip id="veh96" type="veh_passenger" depart="621.90" departLane="best" from="1132678576#0" to="-1151064407#1"/>
    <trip id="veh97" type="veh_passenger" depart="628.38" departLane="best" from="1121011269#2" to="831694400#1"/>
    <trip id="veh99" type="veh_passenger" depart="641.34" departLane="best" from="1151064388#1" to="1144362247"/>
    <trip id="veh100" type="veh_passenger" depart="647.81" departLane="best" from="-7917219#1" to="930343901#1"/>
    <trip id="veh101" type="veh_passenger" depart="654.29" departLane="best" from="15971189" to="310357283#2"/>
    <trip id="veh102" type="veh_passenger" depart="660.77" departLane="best" departSpeed="max" from="-23813206" to="1025851953"/>
    <trip id="veh103" type="veh_passenger" depart="667.25" departLane="best" from="-82658671#1" to="-202817674#4"/>
    <trip id="veh104" type="veh_passenger" depart="673.73" departLane="best" from="-153698390#2" to="339201177#1"/>
    <trip id="veh105" type="veh_passenger" depart="680.20" departLane="best" from="1151064402#0" to="225400578#5"/>
    <trip id="veh106" type="veh_passenger" depart="686.68" departLane="best" departSpeed="max" from="1195383176" to="4612961#1"/>
    <trip id="veh108" type="veh_passenger" depart="699.64" departLane="best" from="756306892" to="289967595#0"/>
    <trip id="veh109" type="veh_passenger" depart="706.12" departLane="best" from="-4610607#1" to="19002363#2"/>
    <trip id="veh110" type="veh_passenger" depart="712.60" departLane="best" from="490365295#0" to="-534588621#0"/>
    <trip id="veh111" type="veh_passenger" depart="719.07" departLane="best" from="19002403#1" to="23852053#1"/>
    <trip id="veh112" type="veh_passenger" depart="725.55" departLane="best" departSpeed="max" from="1133761786" to="225400578#4"/>
    <trip id="veh114" type="veh_passenger" depart="738.51" departLane="best" from="1127596842#2" to="-310177222#1"/>
    <trip id="veh115" type="veh_passenger" depart="744.99" departLane="best" from="-4611696#3" to="1127592486#1"/>
    <trip id="veh116" type="veh_passenger" depart="751.46" departLane="best" from="-24913267#2" to="1025851953"/>
    <trip id="veh118" type="veh_passenger" depart="764.42" departLane="best" departSpeed="max" from="-1176516117" to="1179820253#0"/>
    <trip id="veh119" type="veh_passenger" depart="770.90" departLane="best" departSpeed="max" from="-1176516117" to="1195359141"/>
    <trip id="veh120" type="veh_passenger" depart="777.38" departLane="best" from="492340367#1" to="66071366#3"/>
    <trip id="veh121" type="veh_passenger" depart="783.86" departLane="best" from="4773465#2" to="465398529#1"/>
    <trip id="veh123" type="veh_passenger" depart="796.81" departLane="best" from="-4611693#1" to="305093247#0"/>
    <trip id="veh124" type="veh_passenger" depart="803.29" departLane="best" from="23809678#1" to="1101961674#2"/>
    <trip id="veh125" type="veh_passenger" depart="809.77" departLane="best" from="4588220#0" to="1025851953"/>
    <trip id="veh126" type="veh_passenger" depart="816.25" departLane="best" from="24241797#1" to="66311464#1"/>
    <trip id="veh127" type="veh_passenger" depart="822.72" departLane="best" from="195397541#4" to="-176043794#0"/>
    <trip id="veh130" type="veh_passenger" depart="842.16" departLane="best" departSpeed="max" from="1170522574" to="-534588621#0"/>
    <trip id="veh131" type="veh_passenger" depart="848.64" departLane="best" from="4612961#0" to="-136571494#0"/>
    <trip id="veh132" type="veh_passenger" depart="855.11" departLane="best" departSpeed="max" from="1133761786" to="-831860725#1"/>
    <trip id="veh133" type="veh_passenger" depart="861.59" departLane="best" from="-1040930907#4" to="344594966"/>
    <trip id="veh134" type="veh_passenger" depart="868.07" departLane="best" from="-225400578#3" to="-743631784#0"/>
    <trip id="veh135" type="veh_passenger" depart="874.55" departLane="best" departSpeed="max" from="1133761786" to="168937986"/>
    <trip id="veh136" type="veh_passenger" depart="881.03" departLane="best" departSpeed="max" from="-1176516117" to="4773029#2"/>
    <trip id="veh137" type="veh_passenger" depart="887.51" departLane="best" from="54048862#2" to="195104956#1"/>
    <trip id="veh138" type="veh_passenger" depart="893.98" departLane="best" from="4611693#2" to="225400578#3"/>
    <trip id="veh139" type="veh_passenger" depart="900.46" departLane="best" from="-23121445#3" to="195397541#0"/>
    <trip id="veh140" type="veh_passenger" depart="906.94" departLane="best" from="-882389497#1" to="505475201"/>
    <trip id="veh141" type="veh_passenger" depart="913.42" departLane="best" from="43231842#1" to="82658674#2"/>
    <trip id="veh142" type="veh_passenger" depart="919.90" departLane="best" from="51167934#5" to="4610524#0"/>
    <trip id="veh143" type="veh_passenger" depart="926.37" departLane="best" departSpeed="max" from="-4612974#1" to="-165415464#1"/>
    <trip id="veh144" type="veh_passenger" depart="932.85" departLane="best" from="374734389#1" to="4773029#3"/>
    <trip id="veh145" type="veh_passenger" depart="939.33" departLane="best" from="1133457727" to="23852053#3"/>
    <trip id="veh146" type="veh_passenger" depart="945.81" departLane="best" departSpeed="max" from="-23813206" to="-6227658#1"/>
    <trip id="veh147" type="veh_passenger" depart="952.29" departLane="best" from="4613292#0" to="82659290"/>
    <trip id="veh148" type="veh_passenger" depart="958.77" departLane="best" from="4412868#1" to="465398529#1"/>
    <trip id="veh149" type="veh_passenger" depart="965.24" departLane="best" from="-1119854969#0" to="326116286#0"/>
    <trip id="veh150" type="veh_passenger" depart="971.72" departLane="best" from="1079495669#1" to="6227658#2"/>
    <trip id="veh151" type="veh_passenger" depart="978.20" departLane="best" from="-437325048#1" to="4612974#1"/>
    <trip id="veh152" type="veh_passenger" depart="984.68" departLane="best" from="4412868#1" to="-755551646#0"/>
    <trip id="veh153" type="veh_passenger" depart="991.16" departLane="best" from="415280722" to="-168940071#4"/>
    <trip id="veh154" type="veh_passenger" depart="997.63" departLane="best" from="-461526153#0" to="-4612970#1"/>
    <trip id="veh156" type="veh_passenger" depart="1010.59" departLane="best" from="-1151064402#1" to="1025851953"/>
    <trip id="veh157" type="veh_passenger" depart="1017.07" departLane="best" from="43231842#0" to="-4612970#0"/>
    <trip id="veh158" type="veh_passenger" depart="1023.55" departLane="best" from="1040930907#3" to="4612974#1"/>
    <trip id="veh159" type="veh_passenger" depart="1030.02" departLane="best" from="82654059#1" to="-874528353#0"/>
    <trip id="veh160" type="veh_passenger" depart="1036.50" departLane="best" from="23121445#0" to="1127602336"/>
    <trip id="veh161" type="veh_passenger" depart="1042.98" departLane="best" from="830728708#2" to="190447766#1"/>
    <trip id="veh162" type="veh_passenger" depart="1049.46" departLane="best" from="171826985#2" to="-176043794#0"/>
    <trip id="veh163" type="veh_passenger" depart="1055.94" departLane="best" from="-82658674#1" to="-339201185"/>
    <trip id="veh164" type="veh_passenger" depart="1062.42" departLane="best" from="-310176513#1" to="1077923225#0"/>
    <trip id="veh165" type="veh_passenger" depart="1068.89" departLane="best" from="-195104960#0" to="168942727#1"/>
    <trip id="veh166" type="veh_passenger" depart="1075.37" departLane="best" from="1123106516" to="4773465#2"/>
    <trip id="veh167" type="veh_passenger" depart="1081.85" departLane="best" departSpeed="max" from="-465398529#2" to="30720544#1"/>
    <trip id="veh168" type="veh_passenger" depart="1088.33" departLane="best" from="-1024034687#2" to="61583423#1"/>
    <trip id="veh169" type="veh_passenger" depart="1094.81" departLane="best" from="139877314#1" to="31112516#1"/>
    <trip id="veh170" type="veh_passenger" depart="1101.28" departLane="best" from="1117432853#1" to="-1171295120#1"/>
    <trip id="veh172" type="veh_passenger" depart="1114.24" departLane="best" departSpeed="max" from="-930343901#2" to="4611706#1"/>
    <trip id="veh175" type="veh_passenger" depart="1133.67" departLane="best" from="-195104960#0" to="1133992873#1"/>
    <trip id="veh176" type="veh_passenger" depart="1140.15" departLane="best" from="171826985#2" to="292429062#2"/>
    <trip id="veh177" type="veh_passenger" depart="1146.63" departLane="best" from="-534588621#1" to="23851930"/>
    <trip id="veh178" type="veh_passenger" depart="1153.11" departLane="best" from="-82658674#0" to="195104960#1"/>
    <trip id="veh179" type="veh_passenger" depart="1159.59" departLane="best" from="-1024034687#0" to="100405009#1"/>
    <trip id="veh180" type="veh_passenger" depart="1166.07" departLane="best" departSpeed="max" from="1133761786" to="-202817674#5"/>
    <trip id="veh181" type="veh_passenger" depart="1172.54" departLane="best" from="23809678#2" to="120675240#4"/>
    <trip id="veh182" type="veh_passenger" depart="1179.02" departLane="best" departSpeed="max" from="1133761788" to="4611693#1"/>
    <trip id="veh183" type="veh_passenger" depart="1185.50" departLane="best" departSpeed="max" from="1155757392" to="51167934#1"/>
    <trip id="veh184" type="veh_passenger" depart="1191.98" departLane="best" from="43231842#1" to="-31313667#1"/>
    <trip id="veh186" type="veh_passenger" depart="1204.93" departLane="best" from="202817674#3" to="1105526112#1"/>
    <trip id="veh189" type="veh_passenger" depart="1224.37" departLane="best" from="-35557143#2" to="1114798610#0"/>
    <trip id="veh191" type="veh_passenger" depart="1237.33" departLane="best" departSpeed="max" from="4612966" to="-1173516144#0"/>
    <trip id="veh192" type="veh_passenger" depart="1243.80" departLane="best" departSpeed="max" from="-1133761630#0" to="-24243107#1"/>
    <trip id="veh193" type="veh_passenger" depart="1250.28" departLane="best" from="-339201177#1" to="301610520#1"/>
    <trip id="veh194" type="veh_passenger" depart="1256.76" departLane="best" from="1179820253#1" to="51167934#4"/>
    <trip id="veh195" type="veh_passenger" depart="1263.24" departLane="best" from="23809678#5" to="-1100884511#0"/>
    <trip id="veh196" type="veh_passenger" depart="1269.72" departLane="best" from="-330840125#1" to="344594966"/>
    <trip id="veh197" type="veh_passenger" depart="1276.19" departLane="best" from="28251222#0" to="19002403#1"/>
    <trip id="veh198" type="veh_passenger" depart="1282.67" departLane="best" from="120675240#4" to="-1133992822#0"/>
    <trip id="veh199" type="veh_passenger" depart="1289.15" departLane="best" departSpeed="max" from="-4612974#1" to="4611707#1"/>
    <trip id="veh200" type="veh_passenger" depart="1295.63" departLane="best" from="1151064388#3" to="-437325047#1"/>
    <trip id="veh201" type="veh_passenger" depart="1302.11" departLane="best" from="24243107#1" to="-84960597#1"/>
    <trip id="veh202" type="veh_passenger" depart="1308.58" departLane="best" from="19002403#2" to="72157174#1"/>
    <trip id="veh203" type="veh_passenger" depart="1315.06" departLane="best" from="492340367#1" to="23851930"/>
    <trip id="veh205" type="veh_passenger" depart="1328.02" departLane="best" from="4610480#1" to="195104960#1"/>
    <trip id="veh206" type="veh_passenger" depart="1334.50" departLane="best" from="-51167934#2" to="33301683"/>
    <trip id="veh207" type="veh_passenger" depart="1340.98" departLane="best" departSpeed="max" from="1155757392" to="705182549"/>
    <trip id="veh208" type="veh_passenger" depart="1347.45" departLane="best" from="-4612974#0" to="24540242#2"/>
    <trip id="veh209" type="veh_passenger" depart="1353.93" departLane="best" from="340498988#0" to="171826984#2"/>
    <trip id="veh210" type="veh_passenger" depart="1360.41" departLane="best" from="202156994#0" to="82658674#1"/>
    <trip id="veh211" type="veh_passenger" depart="1366.89" departLane="best" from="-1179820254#0" to="100405009#1"/>
    <trip id="veh212" type="veh_passenger" depart="1373.37" departLane="best" from="-51167934#5" to="1097921784#1"/>
    <trip id="veh213" type="veh_passenger" depart="1379.84" departLane="best" from="139877314#1" to="-23121445#1"/>
    <trip id="veh214" type="veh_passenger" depart="1386.32" departLane="best" departSpeed="max" from="4610524#1" to="301610520#1"/>
    <trip id="veh215" type="veh_passenger" depart="1392.80" departLane="best" from="301167584#0" to="-1155757392"/>
    <trip id="veh216" type="veh_passenger" depart="1399.28" departLane="best" from="1133457727" to="1151064403"/>
    <trip id="veh217" type="veh_passenger" depart="1405.76" departLane="best" departSpeed="max" from="-1133761630#0" to="-4610472#2"/>
    <trip id="veh218" type="veh_passenger" depart="1412.24" departLane="best" departSpeed="max" from="1133761786" to="523630409"/>
    <trip id="veh219" type="veh_passenger" depart="1418.71" departLane="best" from="171826985#2" to="301610520#1"/>
    <trip id="veh220" type="veh_passenger" depart="1425.19" departLane="best" from="112128419#1" to="-1100884511#0"/>
    <trip id="veh221" type="veh_passenger" depart="1431.67" departLane="best" from="1111982484#1" to="831694400#0"/>
    <trip id="veh223" type="veh_passenger" depart="1444.63" departLane="best" departSpeed="max" from="1133761786" to="339201177#0"/>
    <trip id="veh224" type="veh_passenger" depart="1451.10" departLane="best" departSpeed="max" from="153698402#0" to="23809678#7"/>
    <trip id="veh226" type="veh_passenger" depart="1464.06" departLane="best" departSpeed="max" from="1133761788" to="-111833185#0"/>
    <trip id="veh227" type="veh_passenger" depart="1470.54" departLane="best" from="-1101961674#1" to="292429063#0"/>
    <trip id="veh228" type="veh_passenger" depart="1477.02" departLane="best" from="1132678576#0" to="-310177222#0"/>
    <trip id="veh229" type="veh_passenger" depart="1483.49" departLane="best" departSpeed="max" from="1153905265" to="-195397541#0"/>
    <trip id="veh230" type="veh_passenger" depart="1489.97" departLane="best" from="196850609#2" to="1115641285#1"/>
    <trip id="veh231" type="veh_passenger" depart="1496.45" departLane="best" from="1126244314#1" to="196850609#1"/>
    <trip id="veh233" type="veh_passenger" depart="1509.41" departLane="best" from="-195411606" to="1198409426#0"/>
    <trip id="veh234" type="veh_passenger" depart="1515.89" departLane="best" from="340498976#6" to="112128419#2"/>
    <trip id="veh235" type="veh_passenger" depart="1522.36" departLane="best" from="461526153#0" to="1198409426#2"/>
    <trip id="veh236" type="veh_passenger" depart="1528.84" departLane="best" from="-111251382#3" to="-194069450#1"/>
    <trip id="veh237" type="veh_passenger" depart="1535.32" departLane="best" from="950222545" to="1114798610#1"/>
    <trip id="veh239" type="veh_passenger" depart="1548.28" departLane="best" from="236092221#1" to="831694400#0"/>
    <trip id="veh240" type="veh_passenger" depart="1554.75" departLane="best" departSpeed="max" from="755551647" to="454285423#3"/>
    <trip id="veh241" type="veh_passenger" depart="1561.23" departLane="best" from="-111251382#3" to="-24992424#2"/>
    <trip id="veh242" type="veh_passenger" depart="1567.71" departLane="best" from="-195104956#0" to="289830064#0"/>
    <trip id="veh243" type="veh_passenger" depart="1574.19" departLane="best" departSpeed="max" from="165415464#0" to="4611706#1"/>
    <trip id="veh244" type="veh_passenger" depart="1580.67" departLane="best" from="289967595#0" to="344594966"/>
    <trip id="veh245" type="veh_passenger" depart="1587.14" departLane="best" from="24992424#0" to="23851930"/>
    <trip id="veh246" type="veh_passenger" depart="1593.62" departLane="best" from="-326116286#1" to="705182548"/>
    <trip id="veh248" type="veh_passenger" depart="1606.58" departLane="best" from="-168940071#3" to="-1115509343#0"/>
    <trip id="veh250" type="veh_passenger" depart="1619.54" departLane="best" from="301241681#4" to="1179820253#0"/>
    <trip id="veh251" type="veh_passenger" depart="1626.01" departLane="best" from="284493291#0" to="24243056"/>
    <trip id="veh252" type="veh_passenger" depart="1632.49" departLane="best" from="155186522#1" to="344594966"/>
    <trip id="veh253" type="veh_passenger" depart="1638.97" departLane="best" departSpeed="max" from="4612966" to="23809678#2"/>
    <trip id="veh254" type="veh_passenger" depart="1645.45" departLane="best" from="-19002363#2" to="831694400#0"/>
    <trip id="veh255" type="veh_passenger" depart="1651.93" departLane="best" from="380240681#0" to="1113401735#1"/>
    <trip id="veh257" type="veh_passenger" depart="1664.88" departLane="best" departSpeed="max" from="1195383176" to="1111982484#0"/>
    <trip id="veh258" type="veh_passenger" depart="1671.36" departLane="best" departSpeed="max" from="4612966" to="-4588220#1"/>
    <trip id="veh260" type="veh_passenger" depart="1684.32" departLane="best" from="-225400578#1" to="4610374#2"/>
    <trip id="veh261" type="veh_passenger" depart="1690.80" departLane="best" from="301167584#0" to="1151064403"/>
    <trip id="veh263" type="veh_passenger" depart="1703.75" departLane="best" from="-51167934#3" to="4402014#3"/>
    <trip id="veh264" type="veh_passenger" depart="1710.23" departLane="best" from="-507023458#1" to="4612961#1"/>
    <trip id="veh265" type="veh_passenger" depart="1716.71" departLane="best" from="4610524#0" to="-1218225317#4"/>
    <trip id="veh266" type="veh_passenger" depart="1723.19" departLane="best" from="478432725" to="51167934#3"/>
    <trip id="veh267" type="veh_passenger" depart="1729.66" departLane="best" from="-1151064411" to="23851930"/>
    <trip id="veh268" type="veh_passenger" depart="1736.14" departLane="best" from="1121011269#2" to="-111833185#0"/>
    <trip id="veh269" type="veh_passenger" depart="1742.62" departLane="best" departSpeed="max" from="4612966" to="-35578576#4"/>