<?xml version="1.0" encoding="UTF-8"?>

<!-- generated on 2024-10-22 23:16:14 by Eclipse SUMO netedit Version 1.20.0
-->

<additional xmlns:xsi="http://www.w3.org/2001/XMLSchema-instance" xsi:noNamespaceSchemaLocation="http://sumo.dlr.de/xsd/additional_file.xsd">
    <!-- Detectors -->
    <inductionLoop id="e1_0" name="DK51" lane="-1265069358#1_0" pos="3.40" period="300.00" file="e1_0.xml"/>
    <inductionLoop id="e1_1" name="D82" lane="492925919_1" pos="7.26" period="300.00" file="e1_1.xml"/>
    <inductionLoop id="e1_2" name="D81" lane="492925919_0" pos="7.50" period="300.00" file="e1_2.xml"/>
    <inductionLoop id="e1_3" name="D84" lane="395456769#1_3" pos="15.53" period="300.00" file="e1_3.xml"/>
    <inductionLoop id="e1_4" name="D83" lane="395456769#1_2" pos="15.34" period="300.00" file="e1_4.xml"/>
    <inductionLoop id="e1_5" name="D44" lane="378479743#6_3" pos="24.79" period="300.00" file="e1_5.xml"/>
    <inductionLoop id="e1_6" name="D43" lane="378479743#6_2" pos="25.41" period="300.00" file="e1_6.xml"/>
    <inductionLoop id="e1_7" name="D42" lane="700236092#1_3" pos="11.01" period="300.00" file="e1_7.xml"/>
    <inductionLoop id="e1_8" name="D41" lane="700236092#1_2" pos="11.48" period="300.00" file="e1_8.xml"/>
</additional>
