<?xml version="1.0" encoding="UTF-8"?>

<!-- generated on 2024-10-29 11:33:24 by Eclipse SUMO netedit Version 1.20.0
-->

<additional xmlns:xsi="http://www.w3.org/2001/XMLSchema-instance" xsi:noNamespaceSchemaLocation="http://sumo.dlr.de/xsd/additional_file.xsd">
    <!-- Detectors -->
    <inductionLoop id="e1_0" name="DK51" lane="-1265069358#1_0" pos="3.40" period="300.00" file="e1_0.xml"/>
    <inductionLoop id="e1_1" name="D82" lane="492925919_1" pos="7.26" period="300.00" file="e1_1.xml"/>
    <inductionLoop id="e1_10" name="D24" lane="700440134_3" pos="29.62" period="300.00" file="e1_10.xml"/>
    <inductionLoop id="e1_11" name="D22" lane="700440134_1" pos="29.49" period="300.00" file="e1_11.xml"/>
    <inductionLoop id="e1_12" name="D21" lane="700440134_0" pos="29.73" period="300.00" file="e1_12.xml"/>
    <inductionLoop id="e1_13" name="D13" lane="43135644#0_2" pos="36.75" period="300.00" file="e1_13.xml"/>
    <inductionLoop id="e1_14" name="D14" lane="43135644#0_3" pos="37.57" period="300.00" file="e1_14.xml"/>
    <inductionLoop id="e1_15" name="D12" lane="43135644#0_1" pos="37.18" period="300.00" file="e1_15.xml"/>
    <inductionLoop id="e1_16" name="D11" lane="43135644#0_0" pos="38.47" period="300.00" file="e1_16.xml"/>
    <inductionLoop id="e1_17" name="D43" lane="E2_3" pos="9.64" period="300.00" file="e1_17.xml"/>
    <inductionLoop id="e1_18" name="D42" lane="E2_2" pos="8.64" period="300.00" file="e1_18.xml"/>
    <inductionLoop id="e1_19" name="D41" lane="E2_0" pos="10.00" period="300.00" file="e1_19.xml"/>
    <inductionLoop id="e1_2" name="D81" lane="492925919_0" pos="7.50" period="300.00" file="e1_2.xml"/>
    <inductionLoop id="e1_20" name="D40" lane="E3_0" pos="8.63" period="300.00" file="e1_20.xml"/>
    <inductionLoop id="e1_21" name="D34" lane="214812786_3" pos="59.45" period="300.00" file="e1_21.xml"/>
    <inductionLoop id="e1_22" name="D33" lane="214812786_2" pos="57.69" period="300.00" file="e1_22.xml"/>
    <inductionLoop id="e1_23" name="D32" lane="214812786_1" pos="58.80" period="300.00" file="e1_23.xml"/>
    <inductionLoop id="e1_24" name="D31" lane="214812786_0" pos="60.83" period="300.00" file="e1_24.xml"/>
    <inductionLoop id="e1_25" name="D11" lane="150041551#2_2" pos="39.03" period="300.00" file="e1_25.xml"/>
    <inductionLoop id="e1_26" name="D41" lane="-56163443#3_0" pos="138.60" period="300.00" file="e1_26.xml"/>
    <inductionLoop id="e1_27" name="D31" lane="-182982119#1_2" pos="16.36" period="300.00" file="e1_27.xml"/>
    <inductionLoop id="e1_28" name="D21" lane="150041594#0_1" pos="7.82" period="300.00" file="e1_28.xml"/>
    <inductionLoop id="e1_29" name="D11.1" lane="150041565_2" pos="45.76" period="300.00" file="e1_29.xml"/>
    <inductionLoop id="e1_3" name="D84" lane="395456769#1_3" pos="15.53" period="300.00" file="e1_3.xml"/>
    <inductionLoop id="e1_30" name="D11.2" lane="150041565_1" pos="45.91" period="300.00" file="e1_30.xml"/>
    <inductionLoop id="e1_31" name="D2" lane="-53207957_0" pos="13.40" period="300.00" file="e1_31.xml"/>
    <inductionLoop id="e1_32" name="D12" lane="359458217#0_1" pos="19.06" period="300.00" file="e1_32.xml"/>
    <inductionLoop id="e1_33" name="D1" lane="150041580_0" pos="15.14" period="300.00" file="e1_33.xml"/>
    <inductionLoop id="e1_4" name="D83" lane="395456769#1_2" pos="15.34" period="300.00" file="e1_4.xml"/>
    <inductionLoop id="e1_5" name="D44" lane="378479743#6_3" pos="24.79" period="300.00" file="e1_5.xml"/>
    <inductionLoop id="e1_6" name="D43" lane="378479743#6_2" pos="25.41" period="300.00" file="e1_6.xml"/>
    <inductionLoop id="e1_7" name="D42" lane="700236092#1_3" pos="11.01" period="300.00" file="e1_7.xml"/>
    <inductionLoop id="e1_8" name="D41" lane="700236092#1_2" pos="11.48" period="300.00" file="e1_8.xml"/>
    <inductionLoop id="e1_9" name="D23" lane="700440134_2" pos="29.62" period="300.00" file="e1_9.xml"/>
</additional>
