<?xml version="1.0" encoding="UTF-8"?>

<!-- generated on 2024-10-22 22:32:30.156028 by randomTrips.py UNKNOWN
<configuration>
    <net-file value="/opt/homebrew/opt/sumo/share/sumo/tools/2024-10-08-17-29-51/241018_A034.net.xml"/>
    <route-file value="241022_random_route_pedestrian.rou.xml"/>
    <pedestrians value="True"/>
    <prefix value="pedestrian"/>
    <verbose value="True"/>
    <insertion-density value="70.0"/>
    <random-depart value="True"/>
</configuration>
-->

<!-- generated on 2024-10-22 22:32:29 by Eclipse SUMO duarouter Version 1.20.0
<configuration xmlns:xsi="http://www.w3.org/2001/XMLSchema-instance" xsi:noNamespaceSchemaLocation="http://sumo.dlr.de/xsd/duarouterConfiguration.xsd">

    <input>
        <net-file value="/opt/homebrew/opt/sumo/share/sumo/tools/2024-10-08-17-29-51/241018_A034.net.xml"/>
        <route-files value="trips.trips.xml"/>
    </input>

    <output>
        <output-file value="241022_random_route_pedestrian.rou.xml"/>
        <alternatives-output value="NUL"/>
    </output>

    <time>
        <begin value="0.0"/>
        <end value="3600.0"/>
    </time>

    <report>
        <verbose value="true"/>
        <ignore-errors value="true"/>
        <no-step-log value="true"/>
    </report>

</configuration>
-->

<routes xmlns:xsi="http://www.w3.org/2001/XMLSchema-instance" xsi:noNamespaceSchemaLocation="http://sumo.dlr.de/xsd/routes_file.xsd">
    <person id="pedestrian0" depart="1.43">
        <walk edges="1185258342 1153038902#2 -1153038902#0 -29895520#3 -23101679#0 150041551#1 150041551#2 459339932#0 255797401#1"/>
    </person>
    <person id="pedestrian1" depart="2.71">
        <walk edges="-359458216 1162647991 -150041645#4 -150041645#0 -150041699#1 -700440130#0 -700440130#1 -700440128 881694397 -150041624#1 -150041624#0 494297577#1 494297577#0 519402125#0 -150041636#2 -150041636#1 -150041636#0 -378491236 E7 E10 255729797#1 1244524930 253230759#1 253230759#0"/>
    </person>
    <person id="pedestrian2" depart="6.84">
        <walk edges="-150041624#1 -150041624#0 150041594#0 255797402#1 255797405#1 -150041716#0 150041716#1 -150041716#2 150041716#3"/>
    </person>
    <person id="pedestrian4" depart="11.25">
        <walk edges="E3 255729754#0 255729754#1 255729754#2 700440148 378479743#0 378479743#1 378479743#2 378479743#3 378479743#4 378479743#5 378479743#6 700236092#0 700236092#1 -150032873 -984768176#1 255729814#0 255729814#1 -150032770#6 218649572 319910922 319910923#0 319911562"/>
    </person>
    <person id="pedestrian5" depart="14.23">
        <walk edges="-23508141#1 715835444#1 4195580#2 4195580#1 4195580#0 -4144040#1 -4144040#2 484022097 4195610#2 -13858853 -47492539 13858854 -24507771 -1287285290#3 -218848625#1 -327864903#1 -327864903#0 -150032770#0 -150032770#1 -150032770#2 -150032770#5 -150032770#6 255729814#1 255729814#0 984768176#2"/>
    </person>
    <person id="pedestrian6" depart="21.23">
        <walk edges="1185258337 1185258336#2 -1185258339 29895520#0 -29895519#2 -29895519#1 150041716#3 150041716#4 E9 E10.25 E3 255729754#0 255729754#1 255729754#2 700440148 378479743#0 378479743#1 378479743#2 378479743#3 378479743#4 378479743#5 378479743#6 700236092#0 700236092#1 439271817#2"/>
    </person>
    <person id="pedestrian7" depart="29.52">
        <walk edges="-750168166#1 750168166#0"/>
    </person>
    <person id="pedestrian8" depart="31.65">
        <walk edges="395456769#1 378479753 -23248109#1 378479743#3 -365216934"/>
    </person>
    <person id="pedestrian9" depart="33.28">
        <walk edges="185104104 -715835444#1 -715835444#2 1153038902#4 1153038902#2 -1153038902#0 -29895520#3 -23101679#0 150041551#1 150041551#2 150041716#0"/>
    </person>
    <person id="pedestrian10" depart="33.88">
        <walk edges="-148061776#0 -28230108"/>
    </person>
    <person id="pedestrian11" depart="41.85">
        <walk edges="-750168164 750168164 -750168166#0 715835444#5 23508224 4295817#0 700440128 700440130#1 700440130#0 150041565"/>
    </person>
    <person id="pedestrian12" depart="50.56">
        <walk edges="150032842 528567529 -378479743#6 700440139 700440138 E1.13 257510647#1 -257510647#0 -559675981 256102746#0 256105105#9"/>
    </person>
    <person id="pedestrian14" depart="57.74">
        <walk edges="26937083#0 257510661#2 439271818#2 439271818#0 439271817#2 700236092#1 700236092#0 378479743#6 378479743#5 378479743#4 378479743#3 378479743#2 378479743#1 378479743#0 700440148 255729754#2 255729754#1 255729754#0 E3 E10.25 E9 150041716#4 150041716#3 -29895519#1"/>
    </person>
    <person id="pedestrian15" depart="60.34">
        <walk edges="E4 E3 255729754#0 255729754#1 255729754#2 700440148 378479743#0 378479743#1 378479743#2 378479743#3 378479743#4 378479743#5 378479743#6"/>
    </person>
    <person id="pedestrian16" depart="60.95">
        <walk edges="-689912267#0 689912266 255729797#1 E10 E7 -378491236 -150041636#0 -150041636#1 -150041636#2 519402125#0 255797401#1 459339932#0 150041551#2 150041551#1 150041551#0 715835444#4 -750168166#0"/>
    </person>
    <person id="pedestrian17" depart="70.90">
        <walk edges="494297578#1 -182982119#1 255797401#1 459339932#0 -150041716#0 150041716#1 -150041716#2 150041716#3 150041716#4 E9 E10.25 E3 255729754#0 255729754#1 255729754#2 700440148 378479743#0 378479743#1 378479743#2 378479743#3 378479743#4 378479743#5 378479743#6 700236092#0 700236092#1 -150032873 -984768176#1 -149518804#0 -149518804#2 -149518804#3 23401995#1"/>
    </person>
    <person id="pedestrian18" depart="77.00">
        <walk edges="359458216 1162647991 -150041645#4 -150041645#0 -150041699#1 -700440130#0 -700440130#1 -700440128 881694397 -150041624#1 -150041624#0 494297577#1 494297577#0 519402125#0 -150041636#2 -150041636#1 -150041636#0 -378491236 E7 E10 255729797#1 689912266 -689912267#0"/>
    </person>
    <person id="pedestrian20" depart="79.23">
        <walk edges="319910923#2 319910923#1 319910923#0 319910922 218649572 -150032770#6 255729814#1 255729814#0 -984768176#1 -150032873 700236092#1 700236092#0 378479743#6 -378479743#5 -378479743#4 -23248109#1 -23248109#0 -23248118 689756683 -987109589#1 987109590"/>
    </person>
    <person id="pedestrian21" depart="79.89">
        <walk edges="256102748 256105105#9 256102746#0 -559675981 -257510647#0 257510647#1 E1.13 700440138 700440139 -378479743#6 378479743#6 700236092#0 700236092#1 439271817#2 439271818#0"/>
    </person>
    <person id="pedestrian22" depart="83.09">
        <walk edges="366601855 366601856 256102750#3 -56015406#0 -56015406#1 56028463#1 257510647#1 E1.13 700440138 700440139 -378479743#6 528567529 150032842 149518802#1 149518802#0 150032863#1 -539841923#0 -218848625#1 -327864903#1 218848626#1 327864907"/>
    </person>
    <person id="pedestrian23" depart="84.59">
        <walk edges="-1185258342 1185258342 1153038902#2 -1153038902#0 -29895520#3 -23101679#0 -150041551#1 4295817#3 4295817#1 4295817#0 700440128 700440130#1 700440130#0 150041565"/>
    </person>
    <person id="pedestrian24" depart="86.66">
        <walk edges="886547966 150041716#1 -150041716#0 150041551#2 4295817#3"/>
    </person>
    <person id="pedestrian25" depart="87.59">
        <walk edges="4213561#0 4213557 256102749 256102750#1 256102746#1 256102744"/>
    </person>
    <person id="pedestrian26" depart="94.28">
        <walk edges="365216936#1 365216936#0 539841922 150032863#0 150032863#1 149518802#0 149518802#1 150032842 528567529 -378479743#6 700440139 700440138 E1.13 257510647#1 -257510647#0 -559675981 256102746#0 256105105#9 256102748"/>
    </person>
    <person id="pedestrian27" depart="101.69">
        <walk edges="-29895520#3 -29895520#2 -29895520#1 29895520#0 -29895519#2 -29895519#1 150041716#3 150041716#4 E9 E7.20 255729797#1 689912266 -624481020#4 28247401"/>
    </person>
    <person id="pedestrian28" depart="102.47">
        <walk edges="28247397#0 4209642 1244524929 4144040#4 4144040#3 484022097 4195610#2 -13858853 -47492539 13858854 -24507771 563896824 365216936#0 539841922"/>
    </person>
    <person id="pedestrian29" depart="105.29">
        <walk edges="-28247401 -28247397#1 28247397#0 -4209642 253230759#1 253230759#0 -378479743#0 -378479743#1 378479743#2 378479743#3 378479743#4 378479743#5 378479743#6 700236092#0 700236092#1 -150032873 -984768176#1 255729814#0 255729814#1 -150032770#6 218649572 319910922 319910923#0 319911562"/>
    </person>
    <person id="pedestrian30" depart="105.87">
        <walk edges="-1287285290#0 -984768176#1 255729814#0 255729814#1 -150032770#6 -150032770#5 -150032770#2 -150032770#1 806364424"/>
    </person>
    <person id="pedestrian31" depart="111.46">
        <walk edges="-23248109#1 378479743#3 378479743#2 378479743#1 378479743#0 700440148 255729754#2 255729754#1 255729754#0 E3 E10.25 E9 150041716#4 150041716#3 -29895519#1 -29895519#2 29895520#0 -1185258339 -1185258336#3 -1185258336#4"/>
    </person>
    <person id="pedestrian32" depart="115.83">
        <walk edges="-715802321 -29895519#2 -29895519#1 150041716#3 150041716#4 E9 E10.25 E3 255729754#0 255729754#1 255729754#2 -4144040#4 -4144040#3 -4144040#2 -285188048"/>
    </person>
    <person id="pedestrian33" depart="117.03">
        <walk edges="327864908 327864907 218848626#1 -327864903#0 -150032770#0 -150032770#1 -150032770#2 -150032770#5 -150032770#6 255729814#1 255729814#0 -984768176#1 1287285290#0"/>
    </person>
    <person id="pedestrian34" depart="125.31">
        <walk edges="4213557 4213561#0 4213561#1 638694840#0 -638694840#1 689756683 -23248118 -23248109#0 -23248109#1 378479743#3 378479743#2 378479743#1 378479743#0 700440148 255729754#2 255729754#1 255729754#0 -148061769 715835444#1 715835444#2"/>
    </person>
    <person id="pedestrian35" depart="127.01">
        <walk edges="585579893 -4144040#4 700440148 378479743#0 378479743#1 378479743#2 378479743#3"/>
    </person>
    <person id="pedestrian36" depart="127.77">
        <walk edges="-150032873 700236092#1 700236092#0 378479743#6 378479743#5 378479743#4 378479743#3 378479743#2 -378479743#1 -378479743#0 253230759#0 253230759#1 -4209642 -28247397#0"/>
    </person>
    <person id="pedestrian37" depart="127.77">
        <walk edges="-378479743#3 -378479743#2 378479743#1 378479743#0 700440148 255729754#2 255729754#1 255729754#0 -148061769 -715910744#1"/>
    </person>
    <person id="pedestrian38" depart="130.80">
        <walk edges="319910910#0 150032863#3 150032863#2 149518802#0 149518802#1 150032842 528567529 -378479743#6 700440139 700440138 E1.13 257510647#1 -257510647#0 -559675981 256102746#0 256105105#9 -256102748 286646440 56447699#1 22938316#1"/>
    </person>
    <person id="pedestrian39" depart="133.31">
        <walk edges="-715802321 -29895519#2 -29895519#1 150041716#3 150041716#4 E9 E10.25 E3 255729754#0 255729754#1 255729754#2 4144040#4 4144040#3 484022097 4195610#2 -13858853 -47492539 13858854 -24507771 -1287285290#3 -218848625#1 -327864903#1 -327864903#0"/>
    </person>
    <person id="pedestrian41" depart="151.77">
        <walk edges="-957138676#0 150041661 -150041636#1 -150041636#0 -378491236 E7 E10 255729797#1 1244524930 -1244524929 1244524929 4144040#4 4144040#3 484022097 4195610#2"/>
    </person>
    <person id="pedestrian42" depart="151.82">
        <walk edges="365216936#1 563896824 -24507771 13858854 -47492539 -13858853 4195610#2 484022097 -4144040#2 -4144040#1 4195580#0 4195580#1 4195580#2 715835444#1 715835444#2 1153038902#4 1153038902#2 -1153038902#0 -29895520#3 -23101679#0 -150041551#1 4295817#3 4295817#1 4295817#0 700440128 700440130#1 286497563"/>
    </person>
    <person id="pedestrian43" depart="154.37">
        <walk edges="334960660 -23599727#1 -23599727#0 253230759#0 -378479743#0 -378479743#1 378479743#2 378479743#3 378479743#4 378479743#5 378479743#6 700236092#0 700236092#1 439271817#2 439271818#0 439271818#2 257510661#2"/>
    </person>
    <person id="pedestrian44" depart="154.85">
        <walk edges="-359458213 -150041645#4 -150041645#0 -150041699#1 -700440130#0 -700440130#1 -700440128 -4295817#0 -4295817#1 -4295817#3 150041551#1 -23101679#0 -29895520#3 -1153038902#0 1153038902#2 1153038902#4 715835444#2 715835444#1 4195580#2 4195580#1 4195580#0 -4144040#1 -4144040#2 484022097 4195610#2 -13858853 -47492539"/>
    </person>
    <person id="pedestrian45" depart="156.17">
        <walk edges="255729754#1 255729754#2 -4144040#4 -4144040#3 -4144040#2 -4144040#1 -4195580#0"/>
    </person>
    <person id="pedestrian46" depart="156.56">
        <walk edges="984768176#1 -150032873 700236092#1 700236092#0 378479743#6 -378479743#5 -378479743#4 -23248109#1 -23248109#0 -23248118 -689756683"/>
    </person>
    <person id="pedestrian47" depart="162.63">
        <walk edges="-624481020#1 -334960656 334960660 -23599727#1 -23599727#0 253230759#0 -378479743#0 -378479743#1 -378479743#2 -378479743#3"/>
    </person>
    <person id="pedestrian48" depart="163.08">
        <walk edges="359458208#2 -359458208#1 50507098#0 -50507110 196656222#1 196656222#2 700440130#0 700440130#1 700440128 4295817#0 -23508224 -715835444#5 -715835444#4 -715835444#3 -715835444#2"/>
    </person>
    <person id="pedestrian49" depart="163.66">
        <walk edges="-884145210#1 -359458208#2 -150041645#0 -150041699#1 -700440130#0 -700440130#1 -700440128 700440129 1290085526#0 150041594#0 255797402#1 255797405#1 -150041716#0 150041716#1 -150041716#2 150041716#3 150041716#4 E9 E10.25 E3 255729754#0 749484712#1"/>
    </person>
    <person id="pedestrian50" depart="164.56">
        <walk edges="439271818#0 439271817#2 700236092#1 700236092#0 378479743#6 -378479743#6 700440139 700440138 E1.13 257510647#1 56028463#1 -56015406#1 -56015406#0"/>
    </person>
    <person id="pedestrian51" depart="164.98">
        <walk edges="-23508142#1 -23508142#0 23508141#0 -715835444#1 -4195580#2 -4195580#1 -4195580#0 -4144040#1 -4144040#2 484022097 4195610#2 -13858853 -47492539 13858854 -24507771 -1287285290#3 -218848625#1 -327864903#1 -327864903#0 150032770#0 150032770#1 150032770#2 150032770#5 150032770#6 797259708#1 -23401995#1 319910933#0"/>
    </person>
    <person id="pedestrian52" depart="168.93">
        <walk edges="115485617 -150041624#0 494297577#1 494297577#0 519402125#0 -150041636#2 -150041636#1 -150041636#0 -378491236 E7 E10 255729797#1 1244524930 253230759#1 253230759#0 -378479743#0 -378479743#1 -378479743#2 -378479743#3 -23248109#1 -23248109#0 -23248118 689756683 -987109589#1 987109590"/>
    </person>
    <person id="pedestrian54" depart="173.02">
        <walk edges="459339932#0 255797401#1 519402125#0 -150041636#2 -150041636#1 -150041636#0 -378491236 E7 E10 255729797#1 689912266 -624481020#4 -624481020#3"/>
    </person>
    <person id="pedestrian55" depart="173.50">
        <walk edges="-624481020#0 -624481020#1 -334960656 334960660 -23599727#1 -23599727#0 253230759#0 -378479743#0 -378479743#1 378479743#2 378479743#3 378479743#4 365216933 149518793 365216929"/>
    </person>
    <person id="pedestrian56" depart="178.00">
        <walk edges="-806364424 -150032770#1 -150032770#2 -150032770#5 -150032770#6 255729814#1 150032812#1 -149518804#2 149518804#3"/>
    </person>
    <person id="pedestrian57" depart="178.96">
        <walk edges="-484022097 -4144040#3 -4144040#4 255729754#2 255729754#1 255729754#0 E3 E10.25 E9 150041716#4 150041716#3 -150041716#2 150041716#1 -150041716#0 255797405#1 255797402#1 150041594#0 150041624#0"/>
    </person>
    <person id="pedestrian58" depart="181.48">
        <walk edges="-378479743#0 700440148 255729754#2 255729754#1 255729754#0 -148061769 715835444#1 23508141#1"/>
    </person>
    <person id="pedestrian59" depart="185.79">
        <walk edges="749484712#1 255729754#0 E3 E10.25 E7.20 E10 E7 -378491236 -150041636#0 -150041636#1 150041661 35771743#1"/>
    </person>
    <person id="pedestrian60" depart="186.52">
        <walk edges="-28230108 -150041636#0 -378491236 E7 E10 255729797#1 1244524930 253230759#1 253230759#0 -378479743#0 -378479743#1 378479743#2 378479743#3 378479743#4 378479743#5 378479743#6 700236092#0 700236092#1 439271817#2 439271818#0 439271818#2 257510661#2 26937083#1"/>
    </person>
    <person id="pedestrian61" depart="186.84">
        <walk edges="256102750#0 256102750#1 256102749 4213557 4213561#0 4213561#1 638694840#0 -638694840#1 689756683 -23248118 -23248109#0 -23248109#1 -378479743#3 -378479743#2 -378479743#1 -378479743#0 253230759#0 -23599727#0 -459339929"/>
    </person>
    <person id="pedestrian62" depart="188.78">
        <walk edges="319910922 218649572 -150032770#6 255729814#1 255729814#0 -984768176#1 -150032873 700236092#1 700236092#0 378479743#6 -378479743#5 -378479743#4 -23248109#1 -23248109#0 23248118"/>
    </person>
    <person id="pedestrian64" depart="192.56">
        <walk edges="1287285290#2 1287285289 150032863#2 149518802#0 149518793 365216933 378479743#4 378479743#3 365216934"/>
    </person>
    <person id="pedestrian65" depart="195.43">
        <walk edges="-218848625#0 -218848625#1 -1287285290#3 -24507771 13858854 -47492539 -13858853 4195610#0"/>
    </person>
    <person id="pedestrian66" depart="200.69">
        <walk edges="-1153038902#4 715835444#2 715835444#1 -148061769 255729754#0 255729754#1 255729754#2 700440148 378479743#0 378479743#1 378479743#2 378479743#3 -378479743#4 -378479743#5 -378479743#6 700440139 700440138 24509268"/>
    </person>
    <person id="pedestrian67" depart="205.13">
        <walk edges="715910744#1 715910744#0 E4.29 E4 E10.25 E7.20 255729797#1 1244524930"/>
    </person>
    <person id="pedestrian68" depart="205.31">
        <walk edges="750168164 -750168166#0 715835444#4 715835444#3 715835444#2 715835444#1 -148061769 255729754#0 255729754#1 465884703#2 -1244524929 253230759#1 -23599727#0 -23599727#1 334960660 -334960656 624481020#2"/>
    </person>
    <person id="pedestrian69" depart="205.95">
        <walk edges="150041594#0 255797402#1 255797405#1 -150041716#0 150041716#1 -150041716#2 150041716#3 150041716#4 E9 E10.25 E3 255729754#0 255729754#1 255729754#2 700440148 378479743#0 378479743#1 378479743#2 -365216934"/>
    </person>
    <person id="pedestrian70" depart="207.06">
        <walk edges="886547965#0 -29895519#2 29895520#0 -1185258339 1185258336#2 -1185258336#0 1153038902#4 715835444#3 -715835444#4"/>
    </person>
    <person id="pedestrian71" depart="207.61">
        <walk edges="286646440 -256102748 256102750#0 256102750#1 256102749 4213557 4213561#0 4213561#1 638694840#0 -638694840#1 689756683 -23248118 -23248109#0 -23248109#1 378479743#3 378479743#2 378479743#1 378479743#0 700440148 255729754#2 255729754#1 255729754#0 E3 E10.25 E9 150041716#4 150041716#3 -150041716#2 150041716#1 -150041716#0 255797405#1 255797402#1 150041594#0 1290085526#0 700440129"/>
    </person>
    <person id="pedestrian72" depart="210.54">
        <walk edges="-150041699#1 -700440130#0 -700440130#1 -700440128 700440129 1290085526#0 150041594#0 255797402#1"/>
    </person>
    <person id="pedestrian73" depart="210.86">
        <walk edges="23401995#3 -23401995#2 -23401995#1 -149518804#3 -149518804#2 -149518804#0 -984768176#1 -150032873 700236092#1 365217759 365217758"/>
    </person>
    <person id="pedestrian74" depart="213.58">
        <walk edges="750168165 4295817#3 150041551#2 -150041716#0 150041716#1 -150041716#2 150041716#3 150041716#4 E9 E10.25 E3 255729754#0 255729754#1 255729754#2 700440148 378479743#0 378479743#1 378479743#2 378479743#3 -378479743#4 -378479743#5 -378479743#6 700440139 700440138"/>
    </person>
    <person id="pedestrian75" depart="214.63">
        <walk edges="-327864903#1 -218848625#1 -539841923#0 150032863#1 149518802#0 149518793 365216933 -378479743#4 -23248109#1 -23248109#0 -23248118 689756683 638694840#1"/>
    </person>
    <person id="pedestrian76" depart="215.71">
        <walk edges="-327864903#1 -218848625#1 -1287285290#3 -24507771 13858854 -47492539 -13858853 4195610#2 484022097 -4144040#2 -4144040#1 4195580#0 4195580#1 4195580#2 715835444#1"/>
    </person>
    <person id="pedestrian77" depart="224.42">
        <walk edges="E9 150041716#4 150041716#3 -29895519#1 -29895519#2 29895520#0 1185258339"/>
    </person>
    <person id="pedestrian78" depart="229.99">
        <walk edges="150041689 43206316 -150041624#3 150041624#2 881694397 -4295817#0 4295817#1 750168165"/>
    </person>
    <person id="pedestrian79" depart="237.76">
        <walk edges="886404164#1 886547966 150041716#1 -150041716#0 150041551#2 150041551#1 150041551#0 715835444#4 715835444#5"/>
    </person>
    <person id="pedestrian80" depart="239.65">
        <walk edges="624481020#1 -334960656 334960660 -23599727#1 -23599727#0 253230759#1 1244524930 255729797#1 E10 E7 -378491236 -150041636#0 -150041636#1 -150041636#2 519402125#0 494297577#0 494297577#1 -150041624#0 -526519487 -115485620#1"/>
    </person>
    <person id="pedestrian81" depart="240.72">
        <walk edges="255797398 -150041699#1 -700440130#0 -700440130#1 -700440128 881694397 -150041624#1 -150041624#0 494297577#1 494297577#0 519402125#0 -150041636#2 -150041636#1 -150041636#0 -378491236 E7 E10 255729797#1 1244524930 253230759#1 253230759#0 -378479743#0 -378479743#1 -378479743#2 -378479743#3 -23248109#1 -23248109#0"/>
    </person>
    <person id="pedestrian83" depart="245.03">
        <walk edges="E3 -148061769 715835444#1 715835444#2 715835444#3 715835444#4 715835444#5 23508224"/>
    </person>
    <person id="pedestrian84" depart="246.75">
        <walk edges="150041682 -23248109#1 378479743#3 378479743#2 378479743#1 378479743#0 700440148 255729754#2 255729754#1 255729754#0 -148061769 715835444#1 715835444#2 715835444#3 715835444#4 750168166#0"/>
    </person>
    <person id="pedestrian85" depart="248.50">
        <walk edges="56028463#0 256102749 4213557 4213561#0 4213561#1 638694840#0 -638694840#1 689756683 -23248118 -23248109#0 -23248109#1 378479743#3 378479743#2 378479743#1 378479743#0 700440148 4144040#4 4144040#3 -4144040#2 -4144040#1 -4195580#0 -4195580#1 -4195580#2 -715835444#1 23508141#0 -23508142#0 150032877"/>
    </person>
    <person id="pedestrian86" depart="248.72">
        <walk edges="-359458213 -150041645#4 -150041645#0 -150041699#1 -700440130#0 -700440130#1 -700440128 700440129 1290085526#0 150041594#0 255797402#1 255797405#1 -150041716#0 150041716#1 -150041716#2 150041716#3 150041716#4 E9 E10.25 E3 255729754#0 255729754#1 255729754#2 700440148 378479743#0 378479743#1 378479743#2 378479743#3 378479743#4 378479743#5 378479743#6 700236092#0 700236092#1 -150032873 -984768176#1 -149518804#0 -149518804#2 -149518804#3 -23401995#1"/>
    </person>
    <person id="pedestrian87" depart="249.73">
        <walk edges="-29895519#1 150041716#3 150041716#4 E9 E10.25 E3 255729754#0 255729754#1 255729754#2 4144040#4 4144040#3 484022097 4195610#2 -13858853 -47492539 13858854 -24507771 563896824 365216936#0 539841922 150032863#0"/>
    </person>
    <person id="pedestrian88" depart="253.55">
        <walk edges="-484022097 4144040#2 -4144040#1 4195580#0 4195580#1 4195580#2 715835444#1 715835444#2 1153038902#4 1153038902#2 -1153038902#0 -29895520#3 -23101679#0 150041551#1 -4295817#3 -4295817#1 -4295817#0 -700440128 -700440130#1 -700440130#0 -150041699#1 -150041645#0 -150041645#4 1162647991 -359458206"/>
    </person>
    <person id="pedestrian89" depart="258.03">
        <walk edges="378479743#4 -23248109#1 -23248109#0 -23248118 689756683 -638694840#1 638694840#0 378543238 847071794 378543235#1 439271815#0"/>
    </person>
    <person id="pedestrian90" depart="258.20">
        <walk edges="255797398 -150041699#1 -700440130#0 -700440130#1 -700440128 -4295817#0 -4295817#1 -4295817#3 150041551#1 -23101679#0 -29895520#3 -1153038902#0 1153038902#2 1153038902#4 715835444#2 715835444#1 4195580#2 4195580#1 4195580#0 4144040#0"/>
    </person>
    <person id="pedestrian92" depart="262.02">
        <walk edges="694836605 694836603 694836606 694832101 -715910744#1 715835444#1 715835444#2 1153038902#4 1153038902#2 -1153038902#0 -29895520#3 -23101679#0 150041551#1 150041551#2 459339932#0 255797401#1 494297577#0 494297577#1"/>
    </person>
    <person id="pedestrian93" depart="263.36">
        <walk edges="218649572 -150032770#6 255729814#1 255729814#0 -984768176#1 -150032873 700236092#1 700236092#0 378479743#6 378479743#5 378479743#4 378479743#3 378479743#2 378479743#1 378479743#0 700440148 255729754#2 255729754#1 255729754#0 E3 E10.25 E9 150041716#4 150041716#3 -150041716#2 150041716#1 -150041716#0 255797405#1 255797402#1 150041594#0 -150041624#0 -150041624#1 150041624#2 -150041624#3 43206316 -150041689"/>
    </person>
    <person id="pedestrian94" depart="265.71">
        <walk edges="319910922 218649572 -150032770#6 255729814#1 255729814#0 -984768176#1 -150032873 700236092#1 700236092#0 378479743#6 378479743#5 378479743#4 378479743#3 378479743#2 378479743#1 378479743#0 700440148 255729754#2 255729754#1 255729754#0 E3 E10.25 E9 150041716#4 150041716#3 -150041716#2 150041716#1 -150041716#0 255797405#1 255797402#1 150041594#0 1290085526#0 700440129 -700440128 -700440130#1 -700440130#0 -150041699#1 -150041645#0 359458217#0 -884145210#0 359458205 -359458205"/>
    </person>
    <person id="pedestrian95" depart="267.26">
        <walk edges="-28247397#1 -28247401 -624481020#4 689912266 255729797#1 E7.20 E10.25 E4 E4.29 -715910744#0"/>
    </person>
    <person id="pedestrian97" depart="269.34">
        <walk edges="-4305021#0 -378491236 E7 E10 255729797#1 1244524930 253230759#1 253230759#0 -378479743#0 -378479743#1 -378479743#2 -378479743#3 -23248109#1 378479753 395456769#1"/>
    </person>
    <person id="pedestrian98" depart="269.95">
        <walk edges="881694398 -182982119#1 255797401#1 459339932#0 150041551#2 150041551#1 -23101679#0 -29895520#3 -1153038902#0 1153038902#2 1153038902#4 715835444#2 715835444#1 -715910744#1 694832101 694836606 694836603 -694836605 -694836604"/>
    </person>
    <person id="pedestrian99" depart="271.96">
        <walk edges="365217758 365217759 700236092#0 378479743#6 378479743#5 378479743#4 378479743#3 378479743#2 378479743#1 378479743#0 700440148 255729754#2 255729754#1 255729754#0 E3 E10.25 E9 150041716#4 150041716#3 -150041716#2 150041716#1 -150041716#0 255797405#1 255797402#1 150041594#0 1290085526#0 700440129 -700440128 -700440130#1 -700440130#0 -150041699#1 -150041645#0 -150041645#4 -359458213 -1162647992"/>
    </person>
    <person id="pedestrian100" depart="274.44">
        <walk edges="29895520#1 29895520#0 -29895519#2 -29895519#1 150041716#3 150041716#4 E9 E10.25 E3 255729754#0 255729754#1 465884703#2 -1244524929 253230759#1 -23599727#0 -23599727#1 334960660 334960656"/>
    </person>
    <person id="pedestrian101" depart="276.14">
        <walk edges="-150032873 700236092#1 700236092#0 378479743#6 378479743#5 378479743#4 378479743#3 378479743#2 378479743#1 378479743#0 700440148 255729754#2 255729754#1 255729754#0 -148061769 715835444#1 -23508141#0"/>
    </person>
    <person id="pedestrian102" depart="276.40">
        <walk edges="-69990712 43206316 -150041624#3 150041624#2 -150041624#1 -150041624#0 494297577#1 494297577#0 519402125#0 -150041636#2 -150041636#1 -150041636#0 -378491236 E7 E10 255729797#1 1244524930 -1244524929 1244524929"/>
    </person>
    <person id="pedestrian103" depart="277.29">
        <walk edges="150041716#2 150041716#3 150041716#4 E9 E10.25 E4 E4.29 715910744#0 694832101 694836606 694836603 -694836605 694836604"/>
    </person>
    <person id="pedestrian104" depart="278.75">
        <walk edges="359458208#1 50507098#0 -50507110 196656222#1 196656222#2 -700440130#0"/>
    </person>
    <person id="pedestrian105" depart="280.78">
        <walk edges="-23508141#0 715835444#1 -148061769 255729754#0 255729754#1 255729754#2 700440148"/>
    </person>
    <person id="pedestrian106" depart="280.94">
        <walk edges="-638694840#1 689756683 -23248118 -23248109#0 -23248109#1 -378479743#4 -378479743#5 378479743#6 700236092#0 700236092#1 439271817#2 439271818#0 439271818#2 257510661#2 26937083#1"/>
    </person>
    <person id="pedestrian107" depart="284.74">
        <walk edges="-4144040#1 -4144040#2 4144040#3 4144040#4 700440148 378479743#0 378479743#1 378479743#2 378479743#3 -378479743#4 -378479743#5 -378479743#6 700440139 700440138 E1.13 257510647#1 -257510647#0"/>
    </person>
    <person id="pedestrian109" depart="285.47">
        <walk edges="256105105#9 256102746#0 -559675981 -257510647#0 257510647#1 E1.13 700440138 700440139 -378479743#6 528567529 150032842 149518802#1 149518802#0 150032863#1 -539841923#0 1287285290#3"/>
    </person>
    <person id="pedestrian110" depart="290.09">
        <walk edges="24509268 700440138 700440139 -378479743#6 -378479743#5 -378479743#4 378479743#3 378479743#2 378479743#1 378479743#0 700440148 255729754#2 255729754#1 255729754#0 E3 E10.25 E9 150041716#4 150041716#3 -150041716#2 150041716#1 -150041716#0 150041551#2 150041551#1"/>
    </person>
    <person id="pedestrian111" depart="291.39">
        <walk edges="23508141#0 -715835444#1 -4195580#2 -4195580#1 -4195580#0 -4144040#1 -4144040#2 484022097 4195610#2 -13858853 -47492539 13858854 -24507771 -1287285290#3 1287285290#2 1287285289 150032863#3 319910910#0 319910910#1 319910912"/>
    </person>
    <person id="pedestrian112" depart="292.61">
        <walk edges="-4144040#1 -4144040#2 484022097 4195610#2 -13858853 -47492539"/>
    </person>
    <person id="pedestrian113" depart="292.89">
        <walk edges="395456769#1 378479753 -23248109#1 378479743#3 378479743#2 378479743#1 378479743#0 700440148 -4144040#4 585579893"/>
    </person>
    <person id="pedestrian114" depart="295.77">
        <walk edges="-150041645#0 -150041699#1 -700440130#0 -700440130#1 -700440128 -4295817#0 -4295817#1 -4295817#3 150041551#1 -23101679#0 -29895520#3 -1153038902#0 1153038902#2 1153038902#4 715835444#2 715835444#1 4195580#2 4195580#1 4195580#0 -4144040#1 -4144040#2 484022097 4195610#2 -13858853 -47492539 13858854 -24507771 -1287285290#3 -218848625#1 -327864903#1 -327864903#0 150032770#0 150032770#1 150032770#2"/>
    </person>
    <person id="pedestrian115" depart="297.45">