<?xml version="1.0" encoding="UTF-8"?>

<!-- generated on 2024-10-22 10:58:27.632521 by randomTrips.py UNKNOWN
<configuration>
    <net-file value="/opt/homebrew/opt/sumo/share/sumo/tools/2024-10-08-17-29-51/241018_A034.net.xml"/>
    <route-file value="241022_random_route.rou.xml"/>
    <prefix value="passenger"/>
    <vehicle-class value="passenger"/>
    <verbose value="True"/>
    <insertion-density value="70.0"/>
    <random-depart value="True"/>
</configuration>
-->

<!-- generated on 2024-10-22 10:58:27 by Eclipse SUMO duarouter Version 1.20.0
<configuration xmlns:xsi="http://www.w3.org/2001/XMLSchema-instance" xsi:noNamespaceSchemaLocation="http://sumo.dlr.de/xsd/duarouterConfiguration.xsd">

    <input>
        <net-file value="/opt/homebrew/opt/sumo/share/sumo/tools/2024-10-08-17-29-51/241018_A034.net.xml"/>
        <route-files value="trips.trips.xml"/>
    </input>

    <output>
        <output-file value="241022_random_route.rou.xml"/>
        <alternatives-output value="NUL"/>
    </output>

    <time>
        <begin value="0.0"/>
        <end value="3600.0"/>
    </time>

    <report>
        <verbose value="true"/>
        <ignore-errors value="true"/>
        <no-step-log value="true"/>
    </report>

</configuration>
-->

<routes xmlns:xsi="http://www.w3.org/2001/XMLSchema-instance" xsi:noNamespaceSchemaLocation="http://sumo.dlr.de/xsd/routes_file.xsd">
    <vType id="passenger_passenger" vClass="passenger"/>
    <vehicle id="passenger2" type="passenger_passenger" depart="10.21">
        <route edges="75392301#1 4195610#0 4195610#2 484022097 4144040#3 4144040#4 700440148 700440131 506015829#1 E0 E2 378479740#1 -700440136 -56163443#3 182982119#0 881694399 -881694399"/>
    </vehicle>
    <vehicle id="passenger4" type="passenger_passenger" depart="29.86">
        <route edges="-378479743#0 700440131 506015829#1 E0 E2 378479740#1 700440134 715913363#2 1290085525#0 1290085525#1 700440148 378479743#0 378479743#1 378479743#2 378479743#3 378479743#4 378479743#5 378479743#6 700236092#0"/>
    </vehicle>
    <vehicle id="passenger5" type="passenger_passenger" depart="33.63">
        <route edges="150041579#0 150041579#2 150041578 150041580 149518769#1 38115188 150041593 196656222#0 196656222#1 196656222#2 700440130#0 700440130#1 700440128 700440129 1290085526#0 150041594#0 56163443#1 700440137 700440134 715913363#2 1290085525#0 1290085525#1 700440148 378479743#0 378479743#1 378479743#2 378479743#3 378479743#4 378479743#5 378479743#6 700236092#0 700236092#1 700236093 44973978 506013711#1 4019053#2"/>
    </vehicle>
    <vehicle id="passenger8" type="passenger_passenger" depart="56.67">
        <route edges="-624481020#3 -624481020#1 -624481020#0 624481020#0 624481020#1 624481020#2 624481020#4 689912267#0 214812786 378479740#1 -700440136 -56163443#3 -150041594#1 -1290085526#1 -700440129 4295817#0 -23508224"/>
    </vehicle>
    <vehicle id="passenger10" type="passenger_passenger" depart="60.64">
        <route edges="506015829#1 E0 E2 116556686#1 -60263960 -4195580#2"/>
    </vehicle>
    <vehicle id="passenger11" type="passenger_passenger" depart="70.54">
        <route edges="-484022097 484022097 4144040#3 4144040#4 700440148 700440131 506015829#1 E0 E2 378479740#1 -700440136 -56163443#3 -150041594#1 -1290085526#1 -700440129 700440129"/>
    </vehicle>
    <vehicle id="passenger12" type="passenger_passenger" depart="79.43">
        <route edges="-881694399 -182982119#1 56163443#1 700440137 700440134 715913363#2 1290085525#0 1290085525#1 700440148 378479743#0 378479743#1 378479743#2 378479743#3 -23248109#1 23248109#1 -378479743#3"/>
    </vehicle>
    <vehicle id="passenger13" type="passenger_passenger" depart="79.73">
        <route edges="700440138 700440139 -378479743#6 -378479743#5 -378479743#4 -23248109#1 23248109#1 378479743#4 378479743#5 378479743#6 -1265069358#1"/>
    </vehicle>
    <vehicle id="passenger15" type="passenger_passenger" depart="84.24">
        <route edges="-378479743#2 -378479743#1 -378479743#0 700440131 506015829#1 E0 E2 378479740#1 -700440136 -56163443#3"/>
    </vehicle>
    <vehicle id="passenger16" type="passenger_passenger" depart="86.31">
        <route edges="-4144040#4 -4144040#3 4144040#3 4144040#4 700440148 378479743#0 378479743#1 378479743#2 378479743#3 378479743#4 378479743#5 378479743#6 700236092#0 700236092#1 700236093 44973978 506013711#1 4019053#2"/>
    </vehicle>
    <vehicle id="passenger18" type="passenger_passenger" depart="102.13">
        <route edges="56163443#1 700440137 700440134 116556686#1 -60263960 -51873805"/>
    </vehicle>
    <vehicle id="passenger19" type="passenger_passenger" depart="105.79">
        <route edges="-715835444#5 -715835444#4 -715835444#3 -715835444#2 -715835444#1 -4195580#2 -4195580#1 -4195580#0 4144040#1 4144040#2 -4144040#2 -4144040#1"/>
    </vehicle>
    <vehicle id="passenger20" type="passenger_passenger" depart="111.49">
        <route edges="-150041551#3 150041551#2 56163443#1 700440137 700440134 715913363#2 1290085525#0 1290085525#1 700440148 378479743#0 378479743#1 378479743#2 378479743#3 378479743#4 378479743#5 378479743#6 -1265069358#1 -1265069360#0 1265069359 254075881#1 449551311"/>
    </vehicle>
    <vehicle id="passenger21" type="passenger_passenger" depart="117.35">
        <route edges="23248109#1 378479743#4 378479743#5 378479743#6 700236092#0 700236092#1 700236093 44973978"/>
    </vehicle>
    <vehicle id="passenger23" type="passenger_passenger" depart="130.98">
        <route edges="23015831 -23015831 4195610#0 4195610#2 484022097 4144040#3 4144040#4 700440148 378479743#0 378479743#1 378479743#2 378479743#3 -23248109#1"/>
    </vehicle>
    <vehicle id="passenger24" type="passenger_passenger" depart="133.87">
        <route edges="214812786 116556686#1 -60263960 715835444#1 715835444#2 715835444#3"/>
    </vehicle>
    <vehicle id="passenger26" type="passenger_passenger" depart="151.01">
        <route edges="700440129 1290085526#0 150041594#0 56163443#1 700440137 700440134 214812788#2"/>
    </vehicle>
    <vehicle id="passenger27" type="passenger_passenger" depart="156.24">
        <route edges="150041579#2 150041578 150041580 149518769#1 38115188 150041593 196656222#0 196656222#1 196656222#2 700440130#0 700440130#1 700440128 700440129 1290085526#0 150041594#0 56163443#1 700440137 700440134 715913363#2"/>
    </vehicle>
    <vehicle id="passenger28" type="passenger_passenger" depart="162.83">
        <route edges="-150041594#1 -1290085526#1 -700440129 -700440128 -700440130#1 -700440130#0 -196656222#2 -196656222#1 -196656222#0 -53207957 150041579#0 150041579#2 150041578 150041580"/>
    </vehicle>
    <vehicle id="passenger31" type="passenger_passenger" depart="164.49">
        <route edges="-196656222#1 -196656222#0"/>
    </vehicle>
    <vehicle id="passenger32" type="passenger_passenger" depart="164.66">
        <route edges="378479743#6 -1265069358#1 -1265069360#0 1265069359 1265069358#1 -378479743#6 -378479743#5 -378479743#4 -378479743#3 -378479743#2 -378479743#1 -378479743#0 700440131 506015829#1 E0 E2 378479740#1 -700440136 -56163443#3 -150041594#1 -1290085526#1 -700440129 -700440128 -700440130#1 -700440130#0 -150041565"/>
    </vehicle>
    <vehicle id="passenger34" type="passenger_passenger" depart="181.87">
        <route edges="23508224 -23508224 -715835444#5 -715835444#4 -715835444#3 -715835444#2 23508141#1 70205228#0 70205228#1 70205228#2 -70205228#2"/>
    </vehicle>
    <vehicle id="passenger35" type="passenger_passenger" depart="185.17">
        <route edges="E2 378479740#1 700440134 715913363#2 1290085525#0 1290085525#1 700440148 378479743#0 378479743#1 75392301#0 75392301#1 23015831"/>
    </vehicle>
    <vehicle id="passenger36" type="passenger_passenger" depart="186.73">
        <route edges="150041579#0 150041579#2 150041578 150041580 149518769#1 38115188 150041593 196656222#0 196656222#1 196656222#2 700440130#0 700440130#1 700440128 700440129 1290085526#0 150041594#0 56163443#1 700440137 700440134 715913363#2 1290085525#0 1290085525#1 700440148 378479743#0 378479743#1 378479743#2"/>
    </vehicle>
    <vehicle id="passenger37" type="passenger_passenger" depart="188.30">
        <route edges="-23248109#1 23248109#1 -378479743#3 -378479743#2 75392301#0 75392301#1 4195610#0 4195610#2 484022097 -4144040#2 -4144040#1 4195580#0 4195580#1 4195580#2"/>
    </vehicle>
    <vehicle id="passenger39" type="passenger_passenger" depart="192.27">
        <route edges="51873805 60263960 116556688 43135644#0 378479740#1 -700440136 -56163443#3 -150041551#3 -4295817#3 -4295817#1 4295817#1"/>
    </vehicle>
    <vehicle id="passenger40" type="passenger_passenger" depart="200.19">
        <route edges="-484022097 484022097 -4144040#2 -4144040#1 4195580#0 4195580#1 4195580#2 715835444#1 715835444#2 715835444#3 150041551#0 150041551#1"/>
    </vehicle>
    <vehicle id="passenger41" type="passenger_passenger" depart="205.31">
        <route edges="-60263960 715835444#1 715835444#2 715835444#3 -715835444#3 -715835444#2"/>
    </vehicle>
    <vehicle id="passenger42" type="passenger_passenger" depart="205.50">
        <route edges="150041579#0 150041579#2 150041578 150041580 149518769#1 38115188 150041593 196656222#0 196656222#1 196656222#2 700440130#0 700440130#1 700440128 700440129 1290085526#0 150041594#0 56163443#1 700440137 700440134 715913363#2 1290085525#0 1290085525#1 700440148 378479743#0 378479743#1 378479743#2 378479743#3 378479743#4 378479743#5 378479743#6 700236092#0 700236092#1 700236093 44973978 506013711#1 4019053#2 -150032770#6 -150032770#5 -150032770#2 -150032770#1 -150032770#0 150032770#0"/>
    </vehicle>
    <vehicle id="passenger43" type="passenger_passenger" depart="205.91">
        <route edges="-23248109#1 23248109#1 378479743#4 378479743#5 378479743#6 700236092#0 700236092#1 700236093 44973978 506013711#1 4019053#2 -150032770#6 -150032770#5 -150032770#2 -150032770#1 -150032770#0 150032770#0 150032770#1 150032770#2"/>
    </vehicle>
    <vehicle id="passenger44" type="passenger_passenger" depart="207.19">
        <route edges="4144040#3 4144040#4 700440148 378479743#0 378479743#1 378479743#2 378479743#3 378479743#4 378479743#5 378479743#6 700236092#0 700236092#1 700236093 44973978 506013711#1 4019053#2 -150032770#6 -150032770#5 -150032770#2 -150032770#1 -150032770#0 150032770#0 150032770#1 150032770#2 150032770#5 150032770#6 103958941#0 103958941#2"/>
    </vehicle>
    <vehicle id="passenger45" type="passenger_passenger" depart="210.02">
        <route edges="-378479743#6 -378479743#5 -378479743#4 -378479743#3 -378479743#2 -378479743#1 -378479743#0 700440131 506015829#1 E0 E2 116556686#1 -60263960 715835444#1 23508141#1 70205228#0 70205228#1"/>
    </vehicle>
    <vehicle id="passenger46" type="passenger_passenger" depart="229.80">
        <route edges="-196656222#0 -53207957 150041593 196656222#0 196656222#1 196656222#2 700440130#0 700440130#1 700440128 700440129 1290085526#0 150041594#0 56163443#1 700440137 700440134 214812788#2 73372559 -689912267#0 -624481020#4 -624481020#3 -624481020#1 -624481020#0 624481020#0 624481020#1 624481020#2"/>
    </vehicle>
    <vehicle id="passenger47" type="passenger_passenger" depart="237.91">
        <route edges="-23248109#0 23248109#0 23248109#1 -378479743#3 -378479743#2 75392301#0 75392301#1 23015831 -23015831"/>
    </vehicle>
    <vehicle id="passenger48" type="passenger_passenger" depart="239.38">
        <route edges="484022097 4144040#3 4144040#4 700440148 700440131 506015829#1 E0 E2 59591195#0 59591195#1 59591195#2"/>
    </vehicle>
    <vehicle id="passenger49" type="passenger_passenger" depart="240.71">
        <route edges="254075881#1 449551311 44973978 506013711#1 35574708#1"/>
    </vehicle>
    <vehicle id="passenger51" type="passenger_passenger" depart="246.68">
        <route edges="-378479743#1 -378479743#0 700440131 506015829#1 E0 E2 378479740#1 -700440136 -56163443#3 -150041594#1 -1290085526#1 -700440129 4295817#0 -23508224 -715835444#5"/>
    </vehicle>
    <vehicle id="passenger52" type="passenger_passenger" depart="248.45">
        <route edges="4144040#3 4144040#4 -4144040#4 -4144040#3 -484022097 484022097"/>
    </vehicle>
    <vehicle id="passenger53" type="passenger_passenger" depart="249.90">
        <route edges="700440129 1290085526#0 150041594#0 -150041551#3 -4295817#3 -4295817#1 4295817#1"/>
    </vehicle>
    <vehicle id="passenger54" type="passenger_passenger" depart="258.85">
        <route edges="73372559 -689912267#0 -624481020#4 -624481020#3 -624481020#1 -624481020#0 624481020#0 624481020#1 624481020#2 624481020#4 689912267#0 214812786 715913363#2 1290085525#0 1290085525#1 700440148 378479743#0 378479743#1"/>
    </vehicle>
    <vehicle id="passenger55" type="passenger_passenger" depart="260.68">
        <route edges="116556688 43135644#0 715913363#2 1290085525#0 1290085525#1 700440148 378479743#0 378479743#1 378479743#2 378479743#3 378479743#4 378479743#5 378479743#6 -1265069358#1 -1265069360#0 1265069359 254075881#1"/>
    </vehicle>
    <vehicle id="passenger57" type="passenger_passenger" depart="263.77">
        <route edges="-56163443#3 56163443#1 700440137 700440134 715913363#2 1290085525#0 1290085525#1 700440148 378479743#0 378479743#1 378479743#2 378479743#3 -23248109#1"/>
    </vehicle>
    <vehicle id="passenger58" type="passenger_passenger" depart="267.60">
        <route edges="700236092#0 700236092#1 700236093 44973978 506013711#1 4019053#2 -150032770#6 -150032770#5 -150032770#2 -150032770#1 -150032770#0 150032770#0 150032770#1 150032770#2 150032770#5 150032770#6 103958941#0"/>
    </vehicle>
    <vehicle id="passenger60" type="passenger_passenger" depart="276.62">
        <route edges="59591195#2 73372559 -689912267#0 -624481020#4 -624481020#3 -624481020#1 -624481020#0 624481020#0 624481020#1 624481020#2 624481020#4 689912267#0 214812786 715913363#2 1290085525#0 1290085525#1 700440148 378479743#0 378479743#1 378479743#2 378479743#3 378479743#4 378479743#5 378479743#6 700236092#0"/>
    </vehicle>
    <vehicle id="passenger61" type="passenger_passenger" depart="278.19">
        <route edges="75392301#0 75392301#1 4195610#0 4195610#2 484022097 -4144040#2 -4144040#1 4195580#0 4195580#1 4195580#2 60263960"/>
    </vehicle>
    <vehicle id="passenger64" type="passenger_passenger" depart="284.90">
        <route edges="624481020#2 624481020#4 689912267#0 214812786 378479740#1 700440134 214812788#2 73372559 -689912267#0 -624481020#4 -624481020#3 -624481020#1"/>
    </vehicle>
    <vehicle id="passenger65" type="passenger_passenger" depart="284.96">
        <route edges="-4195580#0 4195580#0 4195580#1 4195580#2"/>
    </vehicle>
    <vehicle id="passenger66" type="passenger_passenger" depart="290.97">
        <route edges="-715835444#2"/>
    </vehicle>
    <vehicle id="passenger67" type="passenger_passenger" depart="291.51">
        <route edges="-1290085526#1 -700440129 700440129"/>
    </vehicle>
    <vehicle id="passenger71" type="passenger_passenger" depart="298.43">
        <route edges="-484022097 484022097 4144040#3 4144040#4 700440148 378479743#0 378479743#1 378479743#2 378479743#3 378479743#4 378479743#5 378479743#6 700236092#0 700236092#1 700236093 44973978 506013711#1 4019053#2 -150032770#6 -150032770#5 -150032770#2 -150032770#1 -150032770#0 150032770#0 150032770#1"/>
    </vehicle>
    <vehicle id="passenger72" type="passenger_passenger" depart="300.29">
        <route edges="103958941#2"/>
    </vehicle>
    <vehicle id="passenger74" type="passenger_passenger" depart="306.60">
        <route edges="378479740#1 -700440136 -56163443#3 -150041594#1 -1290085526#1 -700440129 -700440128 -700440130#1 -700440130#0 -196656222#2 -196656222#1"/>
    </vehicle>
    <vehicle id="passenger75" type="passenger_passenger" depart="308.29">
        <route edges="-150041551#3 150041551#2 56163443#1 700440137 700440134 715913363#2 1290085525#0 1290085525#1 700440148 378479743#0 378479743#1 378479743#2 378479743#3 378479743#4 378479743#5 378479743#6 -1265069358#1 -1265069360#0 1265069359 1265069358#1 -378479743#6 -378479743#5"/>
    </vehicle>
    <vehicle id="passenger76" type="passenger_passenger" depart="322.24">
        <route edges="38115188 150041593 196656222#0 196656222#1 196656222#2 700440130#0 700440130#1 700440128 700440129 1290085526#0 150041594#0 56163443#1 700440137 700440134 116556686#1 -60263960 -4195580#2 -4195580#1 -4195580#0 4144040#1 4144040#2"/>
    </vehicle>
    <vehicle id="passenger77" type="passenger_passenger" depart="323.57">
        <route edges="-700440130#0 700440130#0 700440130#1 700440128 700440129 1290085526#0 150041594#0 56163443#1 700440137 700440134 715913363#2 1290085525#0 1290085525#1 700440148 378479743#0 378479743#1 378479743#2 378479743#3 378479743#4 378479743#5 378479743#6 700236092#0 700236092#1 700236093 44973978 506013711#1 4019053#2"/>
    </vehicle>
    <vehicle id="passenger78" type="passenger_passenger" depart="326.71">
        <route edges="196656222#0 196656222#1 196656222#2 700440130#0 700440130#1 700440128 700440129 1290085526#0 150041594#0 -150041551#3 -150041551#1 -150041551#0 150041551#0"/>
    </vehicle>
    <vehicle id="passenger80" type="passenger_passenger" depart="332.41">
        <route edges="-23508224 -715835444#5 -715835444#4 150041551#0 150041551#1 150041551#2 56163443#1 700440137 700440134 715913363#2 1290085525#0 1290085525#1 700440148 378479743#0 378479743#1 378479743#2 378479743#3 378479743#4 378479743#5 378479743#6 700236092#0 700236092#1 700236093 44973978 506013711#1 4019053#2 -150032770#6 -150032770#5 -150032770#2 -150032770#1 -150032770#0 150032770#0 150032770#1 150032770#2"/>
    </vehicle>
    <vehicle id="passenger81" type="passenger_passenger" depart="335.69">
        <route edges="-700440136 -56163443#3 56163443#1 700440137 700440134 715913363#2 1290085525#0 1290085525#1 -4144040#4 -4144040#3 4144040#3"/>
    </vehicle>
    <vehicle id="passenger82" type="passenger_passenger" depart="335.92">
        <route edges="196656222#0 196656222#1 196656222#2 700440130#0 700440130#1 700440128 700440129 1290085526#0 150041594#0 56163443#1 700440137 700440134 116556686#1 -60263960 -4195580#2 -4195580#1 -4195580#0 4144040#1"/>
    </vehicle>
    <vehicle id="passenger83" type="passenger_passenger" depart="347.63">
        <route edges="-150041551#1 -150041551#0 150041551#0 150041551#1 150041551#2 56163443#1 700440137 700440134 715913363#2 1290085525#0"/>
    </vehicle>
    <vehicle id="passenger84" type="passenger_passenger" depart="369.53">
        <route edges="378479743#4 378479743#5 378479743#6 -1265069358#1 -1265069360#0"/>
    </vehicle>
    <vehicle id="passenger85" type="passenger_passenger" depart="372.30">
        <route edges="-715835444#1 -4195580#2"/>
    </vehicle>
    <vehicle id="passenger86" type="passenger_passenger" depart="378.42">
        <route edges="-378479743#3 -378479743#2 -378479743#1 -378479743#0 700440131 506015829#1 E0 E2 116556686#1 -60263960"/>
    </vehicle>
    <vehicle id="passenger87" type="passenger_passenger" depart="379.56">
        <route edges="-881694399 -182982119#1 56163443#1 700440137 700440134 715913363#2 1290085525#0 1290085525#1 700440148 378479743#0 378479743#1 378479743#2 378479743#3 378479743#4 378479743#5 378479743#6 -1265069358#1 -1265069360#0"/>
    </vehicle>
    <vehicle id="passenger88" type="passenger_passenger" depart="383.23">
        <route edges="492925920#0 492925920#1 395456768 395456769#0 395456769#1 24509268 700440138 700440139 -378479743#6 -378479743#5 -378479743#4 -378479743#3 -378479743#2 75392301#0 75392301#1 4195610#0 4195610#2 484022097 -4144040#2 -4144040#1"/>
    </vehicle>
    <vehicle id="passenger89" type="passenger_passenger" depart="396.41">
        <route edges="1290085525#1 -4144040#4 -4144040#3 -4144040#2 -4144040#1 4195580#0 4195580#1 4195580#2"/>
    </vehicle>
    <vehicle id="passenger90" type="passenger_passenger" depart="397.17">
        <route edges="214812786 378479740#1 700440134 214812788#2 73372559 -689912267#0 -624481020#4 -624481020#3 -624481020#1 -624481020#0 624481020#0 624481020#1 624481020#2 624481020#4"/>
    </vehicle>
    <vehicle id="passenger91" type="passenger_passenger" depart="397.44">
        <route edges="59591195#2 73372559 -689912267#0 -624481020#4 -624481020#3 -624481020#1 -624481020#0 624481020#0 624481020#1 624481020#2 624481020#4 689912267#0 214812786 378479740#1 -700440136 -56163443#3 -150041594#1"/>
    </vehicle>
    <vehicle id="passenger92" type="passenger_passenger" depart="408.18">
        <route edges="700440128 700440129 1290085526#0 150041594#0 56163443#1 700440137 700440134 715913363#2 1290085525#0 1290085525#1 700440148 378479743#0 378479743#1 378479743#2 378479743#3 378479743#4 378479743#5 378479743#6 700236092#0 700236092#1 700236093 44973978 506013711#1 4019053#2 -150032770#6"/>
    </vehicle>
    <vehicle id="passenger94" type="passenger_passenger" depart="411.91">
        <route edges="700440128 700440129 1290085526#0 150041594#0 56163443#1 700440137 700440134 715913363#2 1290085525#0 1290085525#1 700440148 378479743#0 378479743#1 378479743#2 378479743#3 378479743#4 378479743#5 378479743#6 -1265069358#1 -1265069360#0 1265069359 254075881#1"/>
    </vehicle>
    <vehicle id="passenger95" type="passenger_passenger" depart="413.56">
        <route edges="378479743#0 378479743#1 75392301#0 75392301#1 4195610#0 4195610#2"/>
    </vehicle>
    <vehicle id="passenger98" type="passenger_passenger" depart="428.78">
        <route edges="59591195#1 59591195#2 73372559 -689912267#0 -624481020#4 -624481020#3 -624481020#1 -624481020#0 624481020#0 624481020#1 624481020#2 624481020#4 689912267#0 214812786 715913363#2 1290085525#0 1290085525#1 700440148 378479743#0 378479743#1 378479743#2 378479743#3 378479743#4"/>
    </vehicle>
    <vehicle id="passenger99" type="passenger_passenger" depart="432.86">
        <route edges="624481020#2 624481020#4 689912267#0 214812786 116556686#1 -60263960 715835444#1 23508141#1 70205228#0"/>
    </vehicle>
    <vehicle id="passenger100" type="passenger_passenger" depart="435.31">
        <route edges="-23015831 4195610#0 4195610#2 484022097 4144040#3 4144040#4 700440148 378479743#0 378479743#1 378479743#2 378479743#3 378479743#4 378479743#5 378479743#6 700236092#0"/>
    </vehicle>
    <vehicle id="passenger101" type="passenger_passenger" depart="436.31">
        <route edges="-624481020#3 -624481020#1 -624481020#0 624481020#0 624481020#1 624481020#2 624481020#4 689912267#0 214812786 378479740#1"/>
    </vehicle>
    <vehicle id="passenger102" type="passenger_passenger" depart="438.45">
        <route edges="23248109#1 -378479743#3 -378479743#2 -378479743#1 -378479743#0 700440131 506015829#1 E0 E2 378479740#1 700440134 715913363#2 1290085525#0"/>
    </vehicle>
    <vehicle id="passenger103" type="passenger_passenger" depart="442.62">
        <route edges="-715835444#2"/>
    </vehicle>
    <vehicle id="passenger104" type="passenger_passenger" depart="447.31">
        <route edges="-881694399 -182982119#1 56163443#1 700440137 700440134 116556686#1 -60263960 -4195580#2 -4195580#1 -4195580#0 -4144040#0"/>
    </vehicle>
    <vehicle id="passenger105" type="passenger_passenger" depart="449.61">
        <route edges="214812788#2 73372559 -689912267#0 -624481020#4 -624481020#3 -624481020#1 -624481020#0 624481020#0 624481020#1 624481020#2 624481020#4 689912267#0 214812786 116556686#1 -60263960 715835444#1 -23508141#0"/>
    </vehicle>
    <vehicle id="passenger107" type="passenger_passenger" depart="458.77">
        <route edges="116556686#1 -60263960 715835444#1 715835444#2 715835444#3 150041551#0 150041551#1 -4295817#3 -4295817#1 4295817#1 4295817#3"/>
    </vehicle>
    <vehicle id="passenger108" type="passenger_passenger" depart="464.09">
        <route edges="624481020#0 624481020#1 624481020#2 624481020#4 689912267#0 214812786 715913363#2 1290085525#0 1290085525#1 700440148 700440131 506015829#1 E0 E2 59591195#0 59591195#1 59591195#2"/>
    </vehicle>
    <vehicle id="passenger109" type="passenger_passenger" depart="467.24">
        <route edges="-624481020#1 -624481020#0 624481020#0 624481020#1 624481020#2 624481020#4 689912267#0 214812786 715913363#2 1290085525#0 1290085525#1 700440148 378479743#0 378479743#1 378479743#2 378479743#3 -23248109#1 23248109#1 -378479743#3"/>
    </vehicle>
    <vehicle id="passenger110" type="passenger_passenger" depart="469.06">
        <route edges="-4295817#0 700440129 1290085526#0 150041594#0 56163443#1 700440137 700440134 715913363#2 1290085525#0 1290085525#1 700440148 378479743#0 378479743#1"/>
    </vehicle>
    <vehicle id="passenger112" type="passenger_passenger" depart="470.27">
        <route edges="-4144040#4 -4144040#3 4144040#3 4144040#4 700440148 700440131 506015829#1"/>
    </vehicle>
    <vehicle id="passenger115" type="passenger_passenger" depart="475.35">
        <route edges="70205228#1 70205228#2 -70205228#2 -70205228#1 -70205228#0 -23508141#1 715835444#2 715835444#3 715835444#4 715835444#5 23508224"/>
    </vehicle>
    <vehicle id="passenger116" type="passenger_passenger" depart="477.86">
        <route edges="395456769#1 378479753 23248109#1 378479743#4 378479743#5"/>
    </vehicle>
    <vehicle id="passenger117" type="passenger_passenger" depart="481.27">
        <route edges="700440128 700440129 1290085526#0 150041594#0 56163443#1 700440137 700440134 715913363#2 1290085525#0 1290085525#1 700440148 378479743#0 378479743#1 378479743#2 378479743#3 378479743#4 378479743#5 378479743#6"/>
    </vehicle>
    <vehicle id="passenger118" type="passenger_passenger" depart="489.66">
        <route edges="-378479743#6 -378479743#5 -378479743#4 -378479743#3 -378479743#2 -378479743#1 -378479743#0 700440131 506015829#1 E0 E2 378479740#1 -700440136 -56163443#3 -150041594#1"/>
    </vehicle>
    <vehicle id="passenger119" type="passenger_passenger" depart="494.30">
        <route edges="150041565 700440130#0 700440130#1 700440128 -700440128 -700440130#1"/>
    </vehicle>
    <vehicle id="passenger120" type="passenger_passenger" depart="497.55">
        <route edges="-700440130#1 -700440130#0 700440130#0 700440130#1 700440128 700440129 1290085526#0 150041594#0 -150041551#3"/>
    </vehicle>
    <vehicle id="passenger121" type="passenger_passenger" depart="497.86">
        <route edges="214812788#2 73372559 -689912267#0 -624481020#4 -624481020#3 -624481020#1 -624481020#0 624481020#0 624481020#1 624481020#2 624481020#4 689912267#0 214812786 378479740#1 -700440136"/>
    </vehicle>
    <vehicle id="passenger122" type="passenger_passenger" depart="510.66">
        <route edges="150041579#0 150041579#2 150041578 150041580 149518769#1 38115188 150041593 196656222#0 196656222#1 196656222#2 700440130#0 700440130#1 700440128 700440129 1290085526#0 150041594#0 -150041551#3"/>
    </vehicle>
    <vehicle id="passenger123" type="passenger_passenger" depart="517.31">
        <route edges="624481020#2 624481020#4 689912267#0 214812786 378479740#1 -700440136 -56163443#3 182982119#0 881694399 -881694399 -182982119#1"/>
    </vehicle>
    <vehicle id="passenger124" type="passenger_passenger" depart="518.49">
        <route edges="700440128 700440129 1290085526#0 150041594#0 56163443#1 700440137 700440134 715913363#2 1290085525#0 1290085525#1 700440148 378479743#0 378479743#1 378479743#2 378479743#3 378479743#4 378479743#5 378479743#6 700236092#0 700236092#1 700236093"/>
    </vehicle>
    <vehicle id="passenger125" type="passenger_passenger" depart="521.52">
        <route edges="378479753 23248109#1 -378479743#3 -378479743#2 -378479743#1 -378479743#0 700440131 506015829#1 E0 E2 378479740#1 -700440136 -56163443#3 -150041594#1 -1290085526#1 -700440129 -700440128 -700440130#1 -700440130#0 -196656222#2 -196656222#1 -196656222#0 -53207957 150041593 196656222#0 196656222#1"/>
    </vehicle>
    <vehicle id="passenger126" type="passenger_passenger" depart="522.10">
        <route edges="150041580 149518769#1 38115188 150041593 196656222#0 196656222#1 196656222#2 700440130#0 700440130#1 700440128 700440129 1290085526#0 150041594#0 56163443#1 700440137 700440134 116556686#1 -60263960 715835444#1 -23508141#0 23508142#0"/>
    </vehicle>
    <vehicle id="passenger127" type="passenger_passenger" depart="522.19">
        <route edges="56163443#1 700440137"/>
    </vehicle>
    <vehicle id="passenger128" type="passenger_passenger" depart="525.49">
        <route edges="150041578 150041580 149518769#1 38115188 150041593 196656222#0 196656222#1 196656222#2 700440130#0 700440130#1 700440128 700440129 1290085526#0 150041594#0 56163443#1 700440137 700440134 715913363#2 1290085525#0 1290085525#1 700440148 700440131 506015829#1 E0 E2 59591195#0 59591195#1"/>
    </vehicle>
    <vehicle id="passenger129" type="passenger_passenger" depart="541.15">
        <route edges="4144040#1 4144040#2 -4144040#2 -4144040#1 4195580#0 4195580#1 4195580#2 715835444#1 23508141#1 70205228#0 70205228#1 70205228#2 -70205228#2 -70205228#1"/>
    </vehicle>
    <vehicle id="passenger130" type="passenger_passenger" depart="546.20">
        <route edges="150041594#0 56163443#1 700440137 700440134 715913363#2 1290085525#0 1290085525#1 700440148 378479743#0 378479743#1 378479743#2 378479743#3 378479743#4 378479743#5 378479743#6 -1265069358#1 -1265069360#0 1265069359 1265069358#1 -378479743#6 -378479743#5 -378479743#4"/>
    </vehicle>
    <vehicle id="passenger131" type="passenger_passenger" depart="555.28">
        <route edges="-182982119#1 56163443#1 700440137 700440134 715913363#2 1290085525#0 1290085525#1 700440148 378479743#0 378479743#1 378479743#2 378479743#3 -23248109#1 -23248109#0"/>
    </vehicle>
    <vehicle id="passenger132" type="passenger_passenger" depart="555.71">
        <route edges="700440137 -700440136 -56163443#3 -150041551#3 -150041551#1 -150041551#0 -715835444#3"/>
    </vehicle>
    <vehicle id="passenger133" type="passenger_passenger" depart="560.76">