<?xml version="1.0" encoding="UTF-8"?>

<!-- generated on 2024-10-22 10:59:51.897576 by randomTrips.py UNKNOWN
<configuration>
    <net-file value="/opt/homebrew/opt/sumo/share/sumo/tools/2024-10-08-17-29-51/241018_A034.net.xml"/>
    <route-file value="241022_random_route_bicycles.rou.xml"/>
    <prefix value="bike"/>
    <vehicle-class value="bicycle"/>
    <verbose value="True"/>
    <insertion-density value="70.0"/>
    <random-depart value="True"/>
</configuration>
-->

<routes xmlns:xsi="http://www.w3.org/2001/XMLSchema-instance" xsi:noNamespaceSchemaLocation="http://sumo.dlr.de/xsd/routes_file.xsd">
    <vType id="bike_bicycle" vClass="bicycle"/>
    <trip id="bike0" depart="1.36" from="700236092#1" to="-23015831" type="bike_bicycle"/>
    <trip id="bike1" depart="2.99" from="4195580#2" to="23508141#0" type="bike_bicycle"/>
    <trip id="bike2" depart="10.21" from="75392301#1" to="-881694399" type="bike_bicycle"/>
    <trip id="bike3" depart="14.34" from="150032770#0" to="-4144040#3" type="bike_bicycle"/>
    <trip id="bike4" depart="29.86" from="-378479743#0" to="700236092#0" type="bike_bicycle"/>
    <trip id="bike5" depart="33.63" from="150041579#0" to="4019053#2" type="bike_bicycle"/>
    <trip id="bike6" depart="41.14" from="4019053#2" to="378479743#0" type="bike_bicycle"/>
    <trip id="bike7" depart="50.14" from="-150032770#1" to="53207959#1" type="bike_bicycle"/>
    <trip id="bike8" depart="56.67" from="-624481020#3" to="-23508224" type="bike_bicycle"/>
    <trip id="bike9" depart="57.23" from="35574708#1" to="-150041594#1" type="bike_bicycle"/>
    <trip id="bike10" depart="60.64" from="506015829#1" to="-4195580#2" type="bike_bicycle"/>
    <trip id="bike11" depart="70.54" from="-484022097" to="700440129" type="bike_bicycle"/>
    <trip id="bike12" depart="79.43" from="-881694399" to="-378479743#3" type="bike_bicycle"/>
    <trip id="bike13" depart="79.73" from="700440138" to="-1265069358#1" type="bike_bicycle"/>
    <trip id="bike14" depart="83.68" from="700236093" to="-378479743#2" type="bike_bicycle"/>
    <trip id="bike15" depart="84.24" from="-378479743#2" to="-56163443#3" type="bike_bicycle"/>
    <trip id="bike16" depart="86.31" from="-4144040#4" to="4019053#2" type="bike_bicycle"/>
    <trip id="bike17" depart="101.10" from="-150032770#2" to="-1290085526#1" type="bike_bicycle"/>
    <trip id="bike18" depart="102.13" from="56163443#1" to="-51873805" type="bike_bicycle"/>
    <trip id="bike19" depart="105.79" from="-715835444#5" to="-4144040#1" type="bike_bicycle"/>
    <trip id="bike20" depart="111.49" from="-150041551#3" to="449551311" type="bike_bicycle"/>
    <trip id="bike21" depart="117.35" from="23248109#1" to="44973978" type="bike_bicycle"/>
    <trip id="bike22" depart="127.67" from="150041594#0" to="53207959#0" type="bike_bicycle"/>
    <trip id="bike23" depart="130.98" from="23015831" to="-23248109#1" type="bike_bicycle"/>
    <trip id="bike24" depart="133.87" from="214812786" to="715835444#3" type="bike_bicycle"/>
    <trip id="bike25" depart="147.08" from="-150041551#0" to="53207959#1" type="bike_bicycle"/>
    <trip id="bike26" depart="151.01" from="700440129" to="214812788#2" type="bike_bicycle"/>
    <trip id="bike27" depart="156.24" from="150041579#2" to="715913363#2" type="bike_bicycle"/>
    <trip id="bike28" depart="162.83" from="-150041594#1" to="150041580" type="bike_bicycle"/>
    <trip id="bike29" depart="163.22" from="150032770#1" to="4144040#4" type="bike_bicycle"/>
    <trip id="bike30" depart="163.87" from="196656222#1" to="700440139" type="bike_bicycle"/>
    <trip id="bike31" depart="164.49" from="-196656222#1" to="-196656222#0" type="bike_bicycle"/>
    <trip id="bike32" depart="164.66" from="378479743#6" to="-150041565" type="bike_bicycle"/>
    <trip id="bike33" depart="178.64" from="-700440130#1" to="378479753" type="bike_bicycle"/>
    <trip id="bike34" depart="181.87" from="23508224" to="-70205228#2" type="bike_bicycle"/>
    <trip id="bike35" depart="185.17" from="E2" to="23015831" type="bike_bicycle"/>
    <trip id="bike36" depart="186.73" from="150041579#0" to="378479743#2" type="bike_bicycle"/>
    <trip id="bike37" depart="188.30" from="-23248109#1" to="4195580#2" type="bike_bicycle"/>
    <trip id="bike38" depart="189.61" from="700236092#1" to="395456769#0" type="bike_bicycle"/>
    <trip id="bike39" depart="192.27" from="51873805" to="4295817#1" type="bike_bicycle"/>
    <trip id="bike40" depart="200.19" from="-484022097" to="150041551#1" type="bike_bicycle"/>
    <trip id="bike41" depart="205.31" from="-60263960" to="-715835444#2" type="bike_bicycle"/>
    <trip id="bike42" depart="205.50" from="150041579#0" to="150032770#0" type="bike_bicycle"/>
    <trip id="bike43" depart="205.91" from="-23248109#1" to="150032770#2" type="bike_bicycle"/>
    <trip id="bike44" depart="207.19" from="4144040#3" to="103958941#2" type="bike_bicycle"/>
    <trip id="bike45" depart="210.02" from="-378479743#6" to="70205228#1" type="bike_bicycle"/>
    <trip id="bike46" depart="229.80" from="-196656222#0" to="624481020#2" type="bike_bicycle"/>
    <trip id="bike47" depart="237.91" from="-23248109#0" to="-23015831" type="bike_bicycle"/>
    <trip id="bike48" depart="239.38" from="484022097" to="59591195#2" type="bike_bicycle"/>
    <trip id="bike49" depart="240.71" from="254075881#1" to="35574708#1" type="bike_bicycle"/>
    <trip id="bike50" depart="241.70" from="35574708#1" to="-715835444#1" type="bike_bicycle"/>
    <trip id="bike51" depart="246.68" from="-378479743#1" to="-715835444#5" type="bike_bicycle"/>
    <trip id="bike52" depart="248.45" from="4144040#3" to="484022097" type="bike_bicycle"/>
    <trip id="bike53" depart="249.90" from="700440129" to="4295817#1" type="bike_bicycle"/>
    <trip id="bike54" depart="258.85" from="73372559" to="378479743#1" type="bike_bicycle"/>
    <trip id="bike55" depart="260.68" from="116556688" to="254075881#1" type="bike_bicycle"/>
    <trip id="bike56" depart="262.26" from="-484022097" to="395456769#1" type="bike_bicycle"/>
    <trip id="bike57" depart="263.77" from="-56163443#3" to="-23248109#1" type="bike_bicycle"/>
    <trip id="bike58" depart="267.60" from="700236092#0" to="103958941#0" type="bike_bicycle"/>
    <trip id="bike59" depart="271.93" from="506015829#1" to="24509268" type="bike_bicycle"/>
    <trip id="bike60" depart="276.62" from="59591195#2" to="700236092#0" type="bike_bicycle"/>
    <trip id="bike61" depart="278.19" from="75392301#0" to="60263960" type="bike_bicycle"/>
    <trip id="bike62" depart="280.25" from="378479753" to="395456768" type="bike_bicycle"/>
    <trip id="bike63" depart="280.29" from="-150032770#2" to="70205228#2" type="bike_bicycle"/>
    <trip id="bike64" depart="284.90" from="624481020#2" to="-624481020#1" type="bike_bicycle"/>
    <trip id="bike65" depart="284.96" from="-4195580#0" to="4195580#2" type="bike_bicycle"/>
    <trip id="bike66" depart="290.97" from="-715835444#2" to="-715835444#2" type="bike_bicycle"/>
    <trip id="bike67" depart="291.51" from="-1290085526#1" to="700440129" type="bike_bicycle"/>
    <trip id="bike68" depart="292.46" from="35574708#1" to="1290085525#1" type="bike_bicycle"/>
    <trip id="bike69" depart="292.96" from="-378479743#4" to="378479753" type="bike_bicycle"/>
    <trip id="bike70" depart="297.04" from="-150032770#5" to="44973978" type="bike_bicycle"/>
    <trip id="bike71" depart="298.43" from="-484022097" to="150032770#1" type="bike_bicycle"/>
    <trip id="bike72" depart="300.29" from="103958941#2" to="103958941#2" type="bike_bicycle"/>
    <trip id="bike73" depart="302.47" from="43135644#0" to="53207959#0" type="bike_bicycle"/>
    <trip id="bike74" depart="306.60" from="378479740#1" to="-196656222#1" type="bike_bicycle"/>
    <trip id="bike75" depart="308.29" from="-150041551#3" to="-378479743#5" type="bike_bicycle"/>
    <trip id="bike76" depart="322.24" from="38115188" to="4144040#2" type="bike_bicycle"/>
    <trip id="bike77" depart="323.57" from="-700440130#0" to="4019053#2" type="bike_bicycle"/>
    <trip id="bike78" depart="326.71" from="196656222#0" to="150041551#0" type="bike_bicycle"/>
    <trip id="bike79" depart="329.57" from="-700440130#1" to="492925919" type="bike_bicycle"/>
    <trip id="bike80" depart="332.41" from="-23508224" to="150032770#2" type="bike_bicycle"/>
    <trip id="bike81" depart="335.69" from="-700440136" to="4144040#3" type="bike_bicycle"/>
    <trip id="bike82" depart="335.92" from="196656222#0" to="4144040#1" type="bike_bicycle"/>
    <trip id="bike83" depart="347.63" from="-150041551#1" to="1290085525#0" type="bike_bicycle"/>
    <trip id="bike84" depart="369.53" from="378479743#4" to="-1265069360#0" type="bike_bicycle"/>
    <trip id="bike85" depart="372.30" from="-715835444#1" to="-4195580#2" type="bike_bicycle"/>
    <trip id="bike86" depart="378.42" from="-378479743#3" to="-60263960" type="bike_bicycle"/>
    <trip id="bike87" depart="379.56" from="-881694399" to="-1265069360#0" type="bike_bicycle"/>
    <trip id="bike88" depart="383.23" from="492925920#0" to="-4144040#1" type="bike_bicycle"/>
    <trip id="bike89" depart="396.41" from="1290085525#1" to="4195580#2" type="bike_bicycle"/>
    <trip id="bike90" depart="397.17" from="214812786" to="624481020#4" type="bike_bicycle"/>
    <trip id="bike91" depart="397.44" from="59591195#2" to="-150041594#1" type="bike_bicycle"/>
    <trip id="bike92" depart="408.18" from="700440128" to="-150032770#6" type="bike_bicycle"/>
    <trip id="bike93" depart="411.33" from="-150032770#1" to="70205228#0" type="bike_bicycle"/>
    <trip id="bike94" depart="411.91" from="700440128" to="254075881#1" type="bike_bicycle"/>
    <trip id="bike95" depart="413.56" from="378479743#0" to="4195610#2" type="bike_bicycle"/>
    <trip id="bike96" depart="420.27" from="150032770#6" to="-23508141#0" type="bike_bicycle"/>
    <trip id="bike97" depart="421.06" from="-150032770#1" to="-70205228#2" type="bike_bicycle"/>
    <trip id="bike98" depart="428.78" from="59591195#1" to="378479743#4" type="bike_bicycle"/>
    <trip id="bike99" depart="432.86" from="624481020#2" to="70205228#0" type="bike_bicycle"/>
    <trip id="bike100" depart="435.31" from="-23015831" to="700236092#0" type="bike_bicycle"/>
    <trip id="bike101" depart="436.31" from="-624481020#3" to="378479740#1" type="bike_bicycle"/>
    <trip id="bike102" depart="438.45" from="23248109#1" to="1290085525#0" type="bike_bicycle"/>
    <trip id="bike103" depart="442.62" from="-715835444#2" to="-715835444#2" type="bike_bicycle"/>
    <trip id="bike104" depart="447.31" from="-881694399" to="-4144040#0" type="bike_bicycle"/>
    <trip id="bike105" depart="449.61" from="214812788#2" to="-23508141#0" type="bike_bicycle"/>
    <trip id="bike106" depart="456.89" from="214812788#2" to="700440139" type="bike_bicycle"/>
    <trip id="bike107" depart="458.77" from="116556686#1" to="4295817#3" type="bike_bicycle"/>
    <trip id="bike108" depart="464.09" from="624481020#0" to="59591195#2" type="bike_bicycle"/>
    <trip id="bike109" depart="467.24" from="-624481020#1" to="-378479743#3" type="bike_bicycle"/>
    <trip id="bike110" depart="469.06" from="-4295817#0" to="378479743#1" type="bike_bicycle"/>
    <trip id="bike111" depart="469.88" from="506013711#1" to="395456769#1" type="bike_bicycle"/>
    <trip id="bike112" depart="470.27" from="-4144040#4" to="506015829#1" type="bike_bicycle"/>
    <trip id="bike113" depart="471.07" from="196656222#1" to="492925919" type="bike_bicycle"/>
    <trip id="bike114" depart="472.18" from="506013711#1" to="150041551#1" type="bike_bicycle"/>
    <trip id="bike115" depart="475.35" from="70205228#1" to="23508224" type="bike_bicycle"/>
    <trip id="bike116" depart="477.86" from="395456769#1" to="378479743#5" type="bike_bicycle"/>
    <trip id="bike117" depart="481.27" from="700440128" to="378479743#6" type="bike_bicycle"/>
    <trip id="bike118" depart="489.66" from="-378479743#6" to="-150041594#1" type="bike_bicycle"/>
    <trip id="bike119" depart="494.30" from="150041565" to="-700440130#1" type="bike_bicycle"/>
    <trip id="bike120" depart="497.55" from="-700440130#1" to="-150041551#3" type="bike_bicycle"/>
    <trip id="bike121" depart="497.86" from="214812788#2" to="-700440136" type="bike_bicycle"/>
    <trip id="bike122" depart="510.66" from="150041579#0" to="-150041551#3" type="bike_bicycle"/>
    <trip id="bike123" depart="517.31" from="624481020#2" to="-182982119#1" type="bike_bicycle"/>
    <trip id="bike124" depart="518.49" from="700440128" to="700236093" type="bike_bicycle"/>
    <trip id="bike125" depart="521.52" from="378479753" to="196656222#1" type="bike_bicycle"/>
    <trip id="bike126" depart="522.10" from="150041580" to="23508142#0" type="bike_bicycle"/>
    <trip id="bike127" depart="522.19" from="56163443#1" to="700440137" type="bike_bicycle"/>
    <trip id="bike128" depart="525.49" from="150041578" to="59591195#1" type="bike_bicycle"/>
    <trip id="bike129" depart="541.15" from="4144040#1" to="-70205228#1" type="bike_bicycle"/>
    <trip id="bike130" depart="546.20" from="150041594#0" to="-378479743#4" type="bike_bicycle"/>
    <trip id="bike131" depart="555.28" from="-182982119#1" to="-23248109#0" type="bike_bicycle"/>
    <trip id="bike132" depart="555.71" from="700440137" to="-715835444#3" type="bike_bicycle"/>
    <trip id="bike133" depart="560.76" from="4295817#3" to="196656222#1" type="bike_bicycle"/>
    <trip id="bike134" depart="566.65" from="-4144040#4" to="-56163443#3" type="bike_bicycle"/>
    <trip id="bike135" depart="571.46" from="150041551#2" to="150032770#6" type="bike_bicycle"/>
    <trip id="bike136" depart="574.86" from="23248109#1" to="-378479743#5" type="bike_bicycle"/>
    <trip id="bike137" depart="585.34" from="1290085525#0" to="-689912267#0" type="bike_bicycle"/>
    <trip id="bike138" depart="596.40" from="150032770#2" to="-715835444#2" type="bike_bicycle"/>
    <trip id="bike139" depart="603.64" from="378479743#4" to="53207959#3" type="bike_bicycle"/>
    <trip id="bike140" depart="604.89" from="4144040#0" to="-150041565" type="bike_bicycle"/>
    <trip id="bike141" depart="606.26" from="-23248109#1" to="4144040#3" type="bike_bicycle"/>
    <trip id="bike142" depart="608.60" from="-70205228#0" to="4295817#1" type="bike_bicycle"/>
    <trip id="bike143" depart="610.76" from="4144040#2" to="700440139" type="bike_bicycle"/>
    <trip id="bike144" depart="621.01" from="700440130#0" to="-715835444#1" type="bike_bicycle"/>
    <trip id="bike145" depart="623.78" from="378479743#1" to="-378479743#2" type="bike_bicycle"/>
    <trip id="bike146" depart="624.95" from="116556686#1" to="73372559" type="bike_bicycle"/>
    <trip id="bike147" depart="632.77" from="4195610#2" to="1290085525#0" type="bike_bicycle"/>
    <trip id="bike148" depart="633.10" from="378479743#4" to="715835444#1" type="bike_bicycle"/>
    <trip id="bike149" depart="634.67" from="-715835444#2" to="116556686#1" type="bike_bicycle"/>
    <trip id="bike150" depart="641.06" from="56163443#1" to="59591195#2" type="bike_bicycle"/>
    <trip id="bike151" depart="644.68" from="4144040#4" to="624481020#2" type="bike_bicycle"/>
    <trip id="bike152" depart="651.09" from="484022097" to="4144040#4" type="bike_bicycle"/>
    <trip id="bike153" depart="653.19" from="23248109#1" to="395456768" type="bike_bicycle"/>
    <trip id="bike154" depart="658.64" from="150041551#0" to="-881694399" type="bike_bicycle"/>
    <trip id="bike155" depart="661.02" from="1265069358#1" to="-4144040#2" type="bike_bicycle"/>
    <trip id="bike156" depart="661.03" from="-484022097" to="715835444#3" type="bike_bicycle"/>
    <trip id="bike157" depart="673.93" from="196656222#0" to="-4295817#3" type="bike_bicycle"/>
    <trip id="bike158" depart="676.44" from="-378479743#3" to="-182982119#1" type="bike_bicycle"/>
    <trip id="bike159" depart="679.37" from="689912267#0" to="-23248109#0" type="bike_bicycle"/>
    <trip id="bike160" depart="681.38" from="51873805" to="624481020#4" type="bike_bicycle"/>
    <trip id="bike161" depart="695.06" from="700440131" to="-150032770#5" type="bike_bicycle"/>
    <trip id="bike162" depart="696.29" from="103958941#0" to="506013711#1" type="bike_bicycle"/>
    <trip id="bike163" depart="725.60" from="-378479743#2" to="116556686#1" type="bike_bicycle"/>
    <trip id="bike164" depart="731.20" from="-4144040#2" to="624481020#2" type="bike_bicycle"/>
    <trip id="bike165" depart="744.48" from="51873805" to="59591195#1" type="bike_bicycle"/>
    <trip id="bike166" depart="751.29" from="-4144040#2" to="150032770#6" type="bike_bicycle"/>
    <trip id="bike167" depart="768.88" from="150032770#2" to="4144040#3" type="bike_bicycle"/>
    <trip id="bike168" depart="778.57" from="-624481020#1" to="150041551#0" type="bike_bicycle"/>
    <trip id="bike169" depart="778.97" from="-70205228#0" to="44973978" type="bike_bicycle"/>
    <trip id="bike170" depart="779.07" from="150041578" to="23248109#0" type="bike_bicycle"/>
    <trip id="bike171" depart="782.24" from="-715835444#2" to="59591195#1" type="bike_bicycle"/>
    <trip id="bike172" depart="784.27" from="150041593" to="624481020#4" type="bike_bicycle"/>
    <trip id="bike173" depart="784.88" from="1265069359" to="715835444#3" type="bike_bicycle"/>
    <trip id="bike174" depart="787.96" from="881694399" to="150041578" type="bike_bicycle"/>
    <trip id="bike175" depart="788.47" from="-700440136" to="116556688" type="bike_bicycle"/>
    <trip id="bike176" depart="807.64" from="23248109#1" to="715913363#2" type="bike_bicycle"/>
    <trip id="bike177" depart="810.24" from="624481020#0" to="59591195#0" type="bike_bicycle"/>
    <trip id="bike178" depart="812.09" from="-378479743#3" to="-56163443#3" type="bike_bicycle"/>
    <trip id="bike179" depart="814.61" from="4019053#2" to="700440130#0" type="bike_bicycle"/>
    <trip id="bike180" depart="815.58" from="24509268" to="-23248109#0" type="bike_bicycle"/>
    <trip id="bike181" depart="816.69" from="700236092#0" to="700236092#1" type="bike_bicycle"/>
    <trip id="bike182" depart="822.56" from="-70205228#0" to="492925920#1" type="bike_bicycle"/>
    <trip id="bike183" depart="833.29" from="-700440130#1" to="700440139" type="bike_bicycle"/>
    <trip id="bike184" depart="833.51" from="-378479743#5" to="150032770#6" type="bike_bicycle"/>
    <trip id="bike185" depart="836.85" from="715835444#3" to="-4295817#1" type="bike_bicycle"/>
    <trip id="bike186" depart="847.92" from="150041579#0" to="-715835444#4" type="bike_bicycle"/>
    <trip id="bike187" depart="858.06" from="-150032770#2" to="-150041551#1" type="bike_bicycle"/>
    <trip id="bike188" depart="860.17" from="214812786" to="-51873805" type="bike_bicycle"/>
    <trip id="bike189" depart="866.11" from="E2" to="116556686#1" type="bike_bicycle"/>
    <trip id="bike190" depart="867.93" from="-150032770#5" to="70205228#2" type="bike_bicycle"/>
    <trip id="bike191" depart="868.60" from="689912267#0" to="395456769#0" type="bike_bicycle"/>
    <trip id="bike192" depart="870.57" from="56163443#1" to="-378479743#1" type="bike_bicycle"/>
    <trip id="bike193" depart="873.46" from="-70205228#0" to="624481020#2" type="bike_bicycle"/>
    <trip id="bike194" depart="875.69" from="4195610#2" to="-378479743#1" type="bike_bicycle"/>
    <trip id="bike195" depart="877.93" from="4295817#0" to="150041551#1" type="bike_bicycle"/>
    <trip id="bike196" depart="881.71" from="-1265069358#1" to="-196656222#0" type="bike_bicycle"/>
    <trip id="bike197" depart="889.22" from="-700440128" to="624481020#4" type="bike_bicycle"/>
    <trip id="bike198" depart="896.61" from="23508224" to="4295817#3" type="bike_bicycle"/>
    <trip id="bike199" depart="897.38" from="23248109#1" to="-23248109#1" type="bike_bicycle"/>
    <trip id="bike200" depart="898.22" from="-70205228#0" to="-700440130#0" type="bike_bicycle"/>
    <trip id="bike201" depart="899.34" from="-150041551#1" to="150032770#1" type="bike_bicycle"/>
    <trip id="bike202" depart="906.17" from="56163443#1" to="150041551#2" type="bike_bicycle"/>
    <trip id="bike203" depart="911.93" from="-23508141#1" to="700440139" type="bike_bicycle"/>
    <trip id="bike204" depart="913.21" from="378479743#4" to="-1290085526#1" type="bike_bicycle"/>
    <trip id="bike205" depart="914.75" from="23015831" to="-53207957" type="bike_bicycle"/>
    <trip id="bike206" depart="920.17" from="-378479743#4" to="150032770#2" type="bike_bicycle"/>
    <trip id="bike207" depart="920.65" from="378479753" to="-53207957" type="bike_bicycle"/>
    <trip id="bike208" depart="937.77" from="150032770#5" to="4019053#2" type="bike_bicycle"/>
    <trip id="bike209" depart="942.51" from="-23015831" to="75392301#0" type="bike_bicycle"/>
    <trip id="bike210" depart="947.83" from="-196656222#0" to="23015831" type="bike_bicycle"/>
    <trip id="bike211" depart="951.88" from="214812788#2" to="881694399" type="bike_bicycle"/>
    <trip id="bike212" depart="952.14" from="24509268" to="1265069358#1" type="bike_bicycle"/>
    <trip id="bike213" depart="953.61" from="150041593" to="378479753" type="bike_bicycle"/>
    <trip id="bike214" depart="956.03" from="75392301#1" to="-60263960" type="bike_bicycle"/>
    <trip id="bike215" depart="956.23" from="-150032770#0" to="53207959#3" type="bike_bicycle"/>
    <trip id="bike216" depart="960.31" from="116556686#1" to="43135644#0" type="bike_bicycle"/>
    <trip id="bike217" depart="961.18" from="395456769#0" to="506015829#1" type="bike_bicycle"/>
    <trip id="bike218" depart="962.13" from="484022097" to="-715835444#1" type="bike_bicycle"/>
    <trip id="bike219" depart="968.46" from="-150041551#0" to="23508141#0" type="bike_bicycle"/>
    <trip id="bike220" depart="974.29" from="60263960" to="-4144040#1" type="bike_bicycle"/>
    <trip id="bike221" depart="977.65" from="53207959#1" to="150041579#0" type="bike_bicycle"/>
    <trip id="bike222" depart="979.59" from="4195610#2" to="378479753" type="bike_bicycle"/>
    <trip id="bike223" depart="982.65" from="60263960" to="-150041565" type="bike_bicycle"/>
    <trip id="bike224" depart="984.89" from="53207959#0" to="150041551#2" type="bike_bicycle"/>
    <trip id="bike225" depart="986.84" from="-70205228#1" to="-150032770#6" type="bike_bicycle"/>
    <trip id="bike226" depart="988.77" from="-4295817#0" to="-150032770#6" type="bike_bicycle"/>
    <trip id="bike227" depart="994.37" from="715835444#1" to="214812786" type="bike_bicycle"/>
    <trip id="bike228" depart="996.42" from="E0" to="23508141#0" type="bike_bicycle"/>
    <trip id="bike229" depart="998.96" from="-689912267#0" to="484022097" type="bike_bicycle"/>
    <trip id="bike230" depart="998.96" from="-4195580#2" to="-715835444#5" type="bike_bicycle"/>
    <trip id="bike231" depart="1000.98" from="53207959#1" to="700440128" type="bike_bicycle"/>
    <trip id="bike232" depart="1002.18" from="-881694399" to="-23508224" type="bike_bicycle"/>
    <trip id="bike233" depart="1015.89" from="1265069359" to="700440134" type="bike_bicycle"/>
    <trip id="bike234" depart="1016.60" from="492925919" to="700440137" type="bike_bicycle"/>
    <trip id="bike235" depart="1020.63" from="1290085526#0" to="75392301#0" type="bike_bicycle"/>
    <trip id="bike236" depart="1022.57" from="196656222#2" to="196656222#0" type="bike_bicycle"/>
    <trip id="bike237" depart="1024.07" from="70205228#1" to="214812786" type="bike_bicycle"/>
    <trip id="bike238" depart="1026.36" from="59591195#1" to="4295817#3" type="bike_bicycle"/>
    <trip id="bike239" depart="1029.10" from="-196656222#2" to="378479743#1" type="bike_bicycle"/>
    <trip id="bike240" depart="1029.44" from="624481020#1" to="23508141#0" type="bike_bicycle"/>
    <trip id="bike241" depart="1033.78" from="-715835444#4" to="-196656222#0" type="bike_bicycle"/>
    <trip id="bike242" depart="1049.20" from="4144040#2" to="-700440130#1" type="bike_bicycle"/>
    <trip id="bike243" depart="1069.78" from="378479743#5" to="150032770#2" type="bike_bicycle"/>
    <trip id="bike244" depart="1081.24" from="4195610#0" to="-715835444#4" type="bike_bicycle"/>
    <trip id="bike245" depart="1083.22" from="-150041551#0" to="700440129" type="bike_bicycle"/>
    <trip id="bike246" depart="1083.81" from="116556688" to="E2" type="bike_bicycle"/>
    <trip id="bike247" depart="1086.67" from="-700440130#1" to="75392301#1" type="bike_bicycle"/>
    <trip id="bike248" depart="1092.37" from="715835444#3" to="-182982119#1" type="bike_bicycle"/>
    <trip id="bike249" depart="1092.94" from="395456769#1" to="103958941#0" type="bike_bicycle"/>
    <trip id="bike250" depart="1093.79" from="59591195#1" to="4144040#3" type="bike_bicycle"/>
    <trip id="bike251" depart="1094.50" from="715835444#4" to="-378479743#2" type="bike_bicycle"/>
    <trip id="bike252" depart="1099.45" from="378479743#6" to="53207959#0" type="bike_bicycle"/>
    <trip id="bike253" depart="1103.10" from="-150032770#6" to="-150041594#1" type="bike_bicycle"/>
    <trip id="bike254" depart="1105.87" from="53207959#1" to="103958941#0" type="bike_bicycle"/>
    <trip id="bike255" depart="1109.53" from="1290085525#1" to="23508224" type="bike_bicycle"/>
    <trip id="bike256" depart="1115.78" from="378479743#5" to="4144040#3" type="bike_bicycle"/>
    <trip id="bike257" depart="1116.86" from="715835444#3" to="103958941#2" type="bike_bicycle"/>
    <trip id="bike258" depart="1117.92" from="506015829#1" to="24509268" type="bike_bicycle"/>
    <trip id="bike259" depart="1126.72" from="23508141#0" to="1290085525#1" type="bike_bicycle"/>
    <trip id="bike260" depart="1131.16" from="4144040#0" to="-56163443#3" type="bike_bicycle"/>
    <trip id="bike261" depart="1131.64" from="-23508224" to="43135644#0" type="bike_bicycle"/>
    <trip id="bike262" depart="1132.68" from="196656222#2" to="1265069358#1" type="bike_bicycle"/>
    <trip id="bike263" depart="1133.15" from="35574708#1" to="-624481020#0" type="bike_bicycle"/>
    <trip id="bike264" depart="1135.66" from="-700440128" to="150041551#0" type="bike_bicycle"/>
    <trip id="bike265" depart="1138.58" from="E2" to="-700440128" type="bike_bicycle"/>
    <trip id="bike266" depart="1138.67" from="700440148" to="150041594#0" type="bike_bicycle"/>
    <trip id="bike267" depart="1139.05" from="-378479743#1" to="700236092#1" type="bike_bicycle"/>
    <trip id="bike268" depart="1139.71" from="150041579#0" to="700440137" type="bike_bicycle"/>
    <trip id="bike269" depart="1139.71" from="150041578" to="-196656222#1" type="bike_bicycle"/>
    <trip id="bike270" depart="1141.65" from="4195580#1" to="700236092#0" type="bike_bicycle"/>
    <trip id="bike271" depart="1142.41" from="-715835444#4" to="-715835444#4" type="bike_bicycle"/>
    <trip id="bike272" depart="1143.00" from="-182982119#1" to="23508141#0" type="bike_bicycle"/>
    <trip id="bike273" depart="1145.26" from="700440134" to="700236092#1" type="bike_bicycle"/>
    <trip id="bike274" depart="1158.32" from="4295817#3" to="70205228#1" type="bike_bicycle"/>
    <trip id="bike275" depart="1159.73" from="395456769#1" to="56163443#1" type="bike_bicycle"/>
    <trip id="bike276" depart="1164.50" from="214812788#2" to="-23508141#1" type="bike_bicycle"/>
    <trip id="bike277" depart="1167.73" from="-4295817#1" to="-378479743#1" type="bike_bicycle"/>
    <trip id="bike278" depart="1175.50" from="56163443#1" to="-150032770#1" type="bike_bicycle"/>
    <trip id="bike279" depart="1177.06" from="24509268" to="103958941#2" type="bike_bicycle"/>
    <trip id="bike280" depart="1178.25" from="59591195#1" to="23508141#1" type="bike_bicycle"/>
    <trip id="bike281" depart="1179.88" from="378479753" to="-196656222#1" type="bike_bicycle"/>
    <trip id="bike282" depart="1180.02" from="-715835444#2" to="E2" type="bike_bicycle"/>
    <trip id="bike283" depart="1195.73" from="43135644#0" to="23015831" type="bike_bicycle"/>
    <trip id="bike284" depart="1201.19" from="51873805" to="624481020#1" type="bike_bicycle"/>
    <trip id="bike285" depart="1205.50" from="-196656222#1" to="75392301#0" type="bike_bicycle"/>
    <trip id="bike286" depart="1209.47" from="4019053#2" to="150041551#1" type="bike_bicycle"/>
    <trip id="bike287" depart="1211.52" from="4195580#1" to="-715835444#3" type="bike_bicycle"/>
    <trip id="bike288" depart="1211.72" from="700440130#1" to="53207959#0" type="bike_bicycle"/>
    <trip id="bike289" depart="1213.06" from="4019053#2" to="-4144040#2" type="bike_bicycle"/>
    <trip id="bike290" depart="1215.80" from="715913363#2" to="150032770#5" type="bike_bicycle"/>
    <trip id="bike291" depart="1225.44" from="700440139" to="-150041551#1" type="bike_bicycle"/>
    <trip id="bike292" depart="1226.55" from="-378479743#1" to="-378479743#4" type="bike_bicycle"/>
    <trip id="bike293" depart="1228.18" from="-4144040#2" to="-70205228#1" type="bike_bicycle"/>
    <trip id="bike294" depart="1230.99" from="4295817#1" to="-715835444#3" type="bike_bicycle"/>
    <trip id="bike295" depart="1232.94" from="715835444#2" to="700440137" type="bike_bicycle"/>
    <trip id="bike296" depart="1235.48" from="700236092#0" to="-56163443#3" type="bike_bicycle"/>
    <trip id="bike297" depart="1238.06" from="395456769#1" to="23508141#1" type="bike_bicycle"/>
    <trip id="bike298" depart="1239.53" from="-378479743#1" to="-700440130#1" type="bike_bicycle"/>
    <trip id="bike299" depart="1244.03" from="23508141#1" to="196656222#0" type="bike_bicycle"/>
    <trip id="bike300" depart="1245.94" from="-4144040#3" to="715835444#2" type="bike_bicycle"/>
    <trip id="bike301" depart="1246.61" from="-378479743#6" to="395456769#1" type="bike_bicycle"/>
    <trip id="bike302" depart="1259.27" from="43135644#0" to="378479743#2" type="bike_bicycle"/>
    <trip id="bike303" depart="1259.29" from="689912267#0" to="23508142#1" type="bike_bicycle"/>
    <trip id="bike304" depart="1262.85" from="624481020#1" to="-150032770#2" type="bike_bicycle"/>
    <trip id="bike305" depart="1265.67" from="-150041551#1" to="38115188" type="bike_bicycle"/>