<?xml version="1.0" encoding="UTF-8"?>

<!-- generated on 2024-10-22 22:32:29.747150 by randomTrips.py UNKNOWN
<configuration>
    <net-file value="/opt/homebrew/opt/sumo/share/sumo/tools/2024-10-08-17-29-51/241018_A034.net.xml"/>
    <route-file value="241022_random_route_pedestrian.rou.xml"/>
    <pedestrians value="True"/>
    <prefix value="pedestrian"/>
    <verbose value="True"/>
    <insertion-density value="70.0"/>
    <random-depart value="True"/>
</configuration>
-->

<routes xmlns:xsi="http://www.w3.org/2001/XMLSchema-instance" xsi:noNamespaceSchemaLocation="http://sumo.dlr.de/xsd/routes_file.xsd">
    <person id="pedestrian0" depart="1.43">
        <walk from="1185258342" to="255797401#1"/>
    </person>
    <person id="pedestrian1" depart="2.71">
        <walk from="-359458216" to="253230759#0"/>
    </person>
    <person id="pedestrian2" depart="6.84">
        <walk from="-150041624#1" to="150041716#3"/>
    </person>
    <person id="pedestrian3" depart="10.21">
        <walk from="4144040#4" to="-563630392#1"/>
    </person>
    <person id="pedestrian4" depart="11.25">
        <walk from="E3" to="319911562"/>
    </person>
    <person id="pedestrian5" depart="14.23">
        <walk from="-23508141#1" to="984768176#2"/>
    </person>
    <person id="pedestrian6" depart="21.23">
        <walk from="1185258337" to="439271817#2"/>
    </person>
    <person id="pedestrian7" depart="29.52">
        <walk from="-750168166#1" to="750168166#0"/>
    </person>
    <person id="pedestrian8" depart="31.65">
        <walk from="395456769#1" to="-365216934"/>
    </person>
    <person id="pedestrian9" depart="33.28">
        <walk from="185104104" to="150041716#0"/>
    </person>
    <person id="pedestrian10" depart="33.88">
        <walk from="-148061776#0" to="-28230108"/>
    </person>
    <person id="pedestrian11" depart="41.85">
        <walk from="-750168164" to="150041565"/>
    </person>
    <person id="pedestrian12" depart="50.56">
        <walk from="150032842" to="256105105#9"/>
    </person>
    <person id="pedestrian13" depart="56.04">
        <walk from="218649572" to="-715913363#2"/>
    </person>
    <person id="pedestrian14" depart="57.74">
        <walk from="26937083#0" to="-29895519#1"/>
    </person>
    <person id="pedestrian15" depart="60.34">
        <walk from="E4" to="378479743#6"/>
    </person>
    <person id="pedestrian16" depart="60.95">
        <walk from="-689912267#0" to="-750168166#0"/>
    </person>
    <person id="pedestrian17" depart="70.90">
        <walk from="494297578#1" to="23401995#1"/>
    </person>
    <person id="pedestrian18" depart="77.00">
        <walk from="359458216" to="-689912267#0"/>
    </person>
    <person id="pedestrian19" depart="77.60">
        <walk from="478347391" to="-E1"/>
    </person>
    <person id="pedestrian20" depart="79.23">
        <walk from="319910923#2" to="987109590"/>
    </person>
    <person id="pedestrian21" depart="79.89">
        <walk from="256102748" to="439271818#0"/>
    </person>
    <person id="pedestrian22" depart="83.09">
        <walk from="366601855" to="327864907"/>
    </person>
    <person id="pedestrian23" depart="84.59">
        <walk from="-1185258342" to="150041565"/>
    </person>
    <person id="pedestrian24" depart="86.66">
        <walk from="886547966" to="4295817#3"/>
    </person>
    <person id="pedestrian25" depart="87.59">
        <walk from="4213561#0" to="256102744"/>
    </person>
    <person id="pedestrian26" depart="94.28">
        <walk from="365216936#1" to="256102748"/>
    </person>
    <person id="pedestrian27" depart="101.69">
        <walk from="-29895520#3" to="28247401"/>
    </person>
    <person id="pedestrian28" depart="102.47">
        <walk from="28247397#0" to="539841922"/>
    </person>
    <person id="pedestrian29" depart="105.29">
        <walk from="-28247401" to="319911562"/>
    </person>
    <person id="pedestrian30" depart="105.87">
        <walk from="-1287285290#0" to="806364424"/>
    </person>
    <person id="pedestrian31" depart="111.46">
        <walk from="-23248109#1" to="-1185258336#4"/>
    </person>
    <person id="pedestrian32" depart="115.83">
        <walk from="-715802321" to="-285188048"/>
    </person>
    <person id="pedestrian33" depart="117.03">
        <walk from="327864908" to="1287285290#0"/>
    </person>
    <person id="pedestrian34" depart="125.31">
        <walk from="4213557" to="715835444#2"/>
    </person>
    <person id="pedestrian35" depart="127.01">
        <walk from="585579893" to="378479743#3"/>
    </person>
    <person id="pedestrian36" depart="127.77">
        <walk from="-150032873" to="-28247397#0"/>
    </person>
    <person id="pedestrian37" depart="127.77">
        <walk from="-378479743#3" to="-715910744#1"/>
    </person>
    <person id="pedestrian38" depart="130.80">
        <walk from="319910910#0" to="22938316#1"/>
    </person>
    <person id="pedestrian39" depart="133.31">
        <walk from="-715802321" to="-327864903#0"/>
    </person>
    <person id="pedestrian40" depart="147.60">
        <walk from="700440138" to="-750404423"/>
    </person>
    <person id="pedestrian41" depart="151.77">
        <walk from="-957138676#0" to="4195610#2"/>
    </person>
    <person id="pedestrian42" depart="151.82">
        <walk from="365216936#1" to="286497563"/>
    </person>
    <person id="pedestrian43" depart="154.37">
        <walk from="334960660" to="257510661#2"/>
    </person>
    <person id="pedestrian44" depart="154.85">
        <walk from="-359458213" to="-47492539"/>
    </person>
    <person id="pedestrian45" depart="156.17">
        <walk from="255729754#1" to="-4195580#0"/>
    </person>
    <person id="pedestrian46" depart="156.56">
        <walk from="984768176#1" to="-689756683"/>
    </person>
    <person id="pedestrian47" depart="162.63">
        <walk from="-624481020#1" to="-378479743#3"/>
    </person>
    <person id="pedestrian48" depart="163.08">
        <walk from="359458208#2" to="-715835444#2"/>
    </person>
    <person id="pedestrian49" depart="163.66">
        <walk from="-884145210#1" to="749484712#1"/>
    </person>
    <person id="pedestrian50" depart="164.56">
        <walk from="439271818#0" to="-56015406#0"/>
    </person>
    <person id="pedestrian51" depart="164.98">
        <walk from="-23508142#1" to="319910933#0"/>
    </person>
    <person id="pedestrian52" depart="168.93">
        <walk from="115485617" to="987109590"/>
    </person>
    <person id="pedestrian53" depart="171.20">
        <walk from="478347392#1" to="881694398"/>
    </person>
    <person id="pedestrian54" depart="173.02">
        <walk from="459339932#0" to="-624481020#3"/>
    </person>
    <person id="pedestrian55" depart="173.50">
        <walk from="-624481020#0" to="365216929"/>
    </person>
    <person id="pedestrian56" depart="178.00">
        <walk from="-806364424" to="149518804#3"/>
    </person>
    <person id="pedestrian57" depart="178.96">
        <walk from="-484022097" to="150041624#0"/>
    </person>
    <person id="pedestrian58" depart="181.48">
        <walk from="-378479743#0" to="23508141#1"/>
    </person>
    <person id="pedestrian59" depart="185.79">
        <walk from="749484712#1" to="35771743#1"/>
    </person>
    <person id="pedestrian60" depart="186.52">
        <walk from="-28230108" to="26937083#1"/>
    </person>
    <person id="pedestrian61" depart="186.84">
        <walk from="256102750#0" to="-459339929"/>
    </person>
    <person id="pedestrian62" depart="188.78">
        <walk from="319910922" to="23248118"/>
    </person>
    <person id="pedestrian63" depart="189.69">
        <walk from="285188051#0" to="-149518804#3"/>
    </person>
    <person id="pedestrian64" depart="192.56">
        <walk from="1287285290#2" to="365216934"/>
    </person>
    <person id="pedestrian65" depart="195.43">
        <walk from="-218848625#0" to="4195610#0"/>
    </person>
    <person id="pedestrian66" depart="200.69">
        <walk from="-1153038902#4" to="24509268"/>
    </person>
    <person id="pedestrian67" depart="205.13">
        <walk from="715910744#1" to="1244524930"/>
    </person>
    <person id="pedestrian68" depart="205.31">
        <walk from="750168164" to="624481020#2"/>
    </person>
    <person id="pedestrian69" depart="205.95">
        <walk from="150041594#0" to="-365216934"/>
    </person>
    <person id="pedestrian70" depart="207.06">
        <walk from="886547965#0" to="-715835444#4"/>
    </person>
    <person id="pedestrian71" depart="207.61">
        <walk from="286646440" to="700440129"/>
    </person>
    <person id="pedestrian72" depart="210.54">
        <walk from="-150041699#1" to="255797402#1"/>
    </person>
    <person id="pedestrian73" depart="210.86">
        <walk from="23401995#3" to="365217758"/>
    </person>
    <person id="pedestrian74" depart="213.58">
        <walk from="750168165" to="700440138"/>
    </person>
    <person id="pedestrian75" depart="214.63">
        <walk from="-327864903#1" to="638694840#1"/>
    </person>
    <person id="pedestrian76" depart="215.71">
        <walk from="-327864903#1" to="715835444#1"/>
    </person>
    <person id="pedestrian77" depart="224.42">
        <walk from="E9" to="1185258339"/>
    </person>
    <person id="pedestrian78" depart="229.99">
        <walk from="150041689" to="750168165"/>
    </person>
    <person id="pedestrian79" depart="237.76">
        <walk from="886404164#1" to="715835444#5"/>
    </person>
    <person id="pedestrian80" depart="239.65">
        <walk from="624481020#1" to="-115485620#1"/>
    </person>
    <person id="pedestrian81" depart="240.72">
        <walk from="255797398" to="-23248109#0"/>
    </person>
    <person id="pedestrian82" depart="241.55">
        <walk from="E1" to="-572523427"/>
    </person>
    <person id="pedestrian83" depart="245.03">
        <walk from="E3" to="23508224"/>
    </person>
    <person id="pedestrian84" depart="246.75">
        <walk from="150041682" to="750168166#0"/>
    </person>
    <person id="pedestrian85" depart="248.50">
        <walk from="56028463#0" to="150032877"/>
    </person>
    <person id="pedestrian86" depart="248.72">
        <walk from="-359458213" to="-23401995#1"/>
    </person>
    <person id="pedestrian87" depart="249.73">
        <walk from="-29895519#1" to="150032863#0"/>
    </person>
    <person id="pedestrian88" depart="253.55">
        <walk from="-484022097" to="-359458206"/>
    </person>
    <person id="pedestrian89" depart="258.03">
        <walk from="378479743#4" to="439271815#0"/>
    </person>
    <person id="pedestrian90" depart="258.20">
        <walk from="255797398" to="4144040#0"/>
    </person>
    <person id="pedestrian91" depart="260.12">
        <walk from="-327864903#1" to="563630392#0"/>
    </person>
    <person id="pedestrian92" depart="262.02">
        <walk from="694836605" to="494297577#1"/>
    </person>
    <person id="pedestrian93" depart="263.36">
        <walk from="218649572" to="-150041689"/>
    </person>
    <person id="pedestrian94" depart="265.71">
        <walk from="319910922" to="-359458205"/>
    </person>
    <person id="pedestrian95" depart="267.26">
        <walk from="-28247397#1" to="-715910744#0"/>
    </person>
    <person id="pedestrian96" depart="269.31">
        <walk from="-478347392#0" to="-494297577#1"/>
    </person>
    <person id="pedestrian97" depart="269.34">
        <walk from="-4305021#0" to="395456769#1"/>
    </person>
    <person id="pedestrian98" depart="269.95">
        <walk from="881694398" to="-694836604"/>
    </person>
    <person id="pedestrian99" depart="271.96">
        <walk from="365217758" to="-1162647992"/>
    </person>
    <person id="pedestrian100" depart="274.44">
        <walk from="29895520#1" to="334960656"/>
    </person>
    <person id="pedestrian101" depart="276.14">
        <walk from="-150032873" to="-23508141#0"/>
    </person>
    <person id="pedestrian102" depart="276.40">
        <walk from="-69990712" to="1244524929"/>
    </person>
    <person id="pedestrian103" depart="277.29">
        <walk from="150041716#2" to="694836604"/>
    </person>
    <person id="pedestrian104" depart="278.75">
        <walk from="359458208#1" to="-700440130#0"/>
    </person>
    <person id="pedestrian105" depart="280.78">
        <walk from="-23508141#0" to="700440148"/>
    </person>
    <person id="pedestrian106" depart="280.94">
        <walk from="-638694840#1" to="26937083#1"/>
    </person>
    <person id="pedestrian107" depart="284.74">
        <walk from="-4144040#1" to="-257510647#0"/>
    </person>
    <person id="pedestrian108" depart="284.94">
        <walk from="-285188051#0" to="378543238"/>
    </person>
    <person id="pedestrian109" depart="285.47">
        <walk from="256105105#9" to="1287285290#3"/>
    </person>
    <person id="pedestrian110" depart="290.09">
        <walk from="24509268" to="150041551#1"/>
    </person>
    <person id="pedestrian111" depart="291.39">
        <walk from="23508141#0" to="319910912"/>
    </person>
    <person id="pedestrian112" depart="292.61">
        <walk from="-4144040#1" to="-47492539"/>
    </person>
    <person id="pedestrian113" depart="292.89">
        <walk from="395456769#1" to="585579893"/>
    </person>
    <person id="pedestrian114" depart="295.77">
        <walk from="-150041645#0" to="150032770#2"/>
    </person>
    <person id="pedestrian115" depart="297.45">
        <walk from="359458208#1" to="-150041636#0"/>
    </person>
    <person id="pedestrian116" depart="298.21">
        <walk from="255729814#0" to="-150032873"/>
    </person>
    <person id="pedestrian117" depart="298.55">
        <walk from="23599727#1" to="150041716#3"/>
    </person>
    <person id="pedestrian118" depart="300.07">
        <walk from="255797402#0" to="-285156957"/>
    </person>
    <person id="pedestrian119" depart="302.04">
        <walk from="-749484708" to="218848626#1"/>
    </person>
    <person id="pedestrian120" depart="302.97">
        <walk from="-23401995#3" to="-378479743#2"/>
    </person>
    <person id="pedestrian121" depart="303.11">
        <walk from="256102748" to="-150041699#2"/>
    </person>
    <person id="pedestrian122" depart="303.69">
        <walk from="185104104" to="465884703#1"/>
    </person>
    <person id="pedestrian123" depart="306.31">
        <walk from="150032812#1" to="196656222#1"/>
    </person>
    <person id="pedestrian124" depart="307.82">
        <walk from="150032842" to="-150032770#5"/>
    </person>
    <person id="pedestrian125" depart="308.30">
        <walk from="150032863#2" to="465884703#0"/>
    </person>
    <person id="pedestrian126" depart="314.13">
        <walk from="365217759" to="1185258338#0"/>
    </person>
    <person id="pedestrian127" depart="318.29">
        <walk from="478347392#0" to="378543235#1"/>
    </person>
    <person id="pedestrian128" depart="322.49">
        <walk from="256102744" to="-148061776#0"/>
    </person>
    <person id="pedestrian129" depart="323.07">
        <walk from="-797259708#1" to="-150041551#0"/>
    </person>
    <person id="pedestrian130" depart="323.32">
        <walk from="E7" to="750168164"/>
    </person>
    <person id="pedestrian131" depart="326.17">
        <walk from="-150041594#1" to="749484712#1"/>
    </person>
    <person id="pedestrian132" depart="327.28">
        <walk from="-1287285290#0" to="1287285289"/>
    </person>
    <person id="pedestrian133" depart="329.98">
        <walk from="4195580#2" to="4195580#0"/>
    </person>
    <person id="pedestrian134" depart="330.89">
        <walk from="987109589#1" to="286646440"/>
    </person>
    <person id="pedestrian135" depart="332.30">
        <walk from="1290085526#0" to="E4.29"/>
    </person>
    <person id="pedestrian136" depart="332.50">
        <walk from="115485620#1" to="572523427"/>
    </person>
    <person id="pedestrian137" depart="335.15">
        <walk from="700440128" to="1153038902#0"/>
    </person>
    <person id="pedestrian138" depart="335.61">
        <walk from="327864898" to="319910910#0"/>
    </person>
    <person id="pedestrian139" depart="338.94">
        <walk from="23508142#0" to="29895520#1"/>
    </person>
    <person id="pedestrian140" depart="347.82">
        <walk from="-884145210#0" to="-35098345"/>
    </person>
    <person id="pedestrian141" depart="347.94">
        <walk from="23508141#0" to="23101679#1"/>
    </person>
    <person id="pedestrian142" depart="359.53">
        <walk from="366601856" to="-4144040#4"/>
    </person>
    <person id="pedestrian143" depart="360.88">
        <walk from="-1153038902#2" to="-1185258339"/>
    </person>
    <person id="pedestrian144" depart="369.85">
        <walk from="-689756683" to="319910923#1"/>
    </person>
    <person id="pedestrian145" depart="372.58">
        <walk from="23510371" to="23401995#1"/>
    </person>
    <person id="pedestrian146" depart="375.43">
        <walk from="484022097" to="-47492539"/>
    </person>
    <person id="pedestrian147" depart="375.67">
        <walk from="-806364424" to="-563630391"/>
    </person>
    <person id="pedestrian148" depart="378.47">
        <walk from="750168165" to="366601855"/>
    </person>
    <person id="pedestrian149" depart="379.47">
        <walk from="-23401995#1" to="465884703#1"/>
    </person>
    <person id="pedestrian150" depart="381.23">
        <walk from="1290085526#0" to="4195580#0"/>
    </person>
    <person id="pedestrian151" depart="383.37">
        <walk from="640167405" to="-1185258336#2"/>
    </person>
    <person id="pedestrian152" depart="387.99">
        <walk from="-378479743#2" to="-218848625#1"/>
    </person>
    <person id="pedestrian153" depart="389.01">
        <walk from="-1287285290#1" to="256105105#4"/>
    </person>
    <person id="pedestrian154" depart="395.67">
        <walk from="359458208#1" to="-149518804#0"/>
    </person>
    <person id="pedestrian155" depart="396.25">
        <walk from="378479743#6" to="1185258343"/>
    </person>
    <person id="pedestrian156" depart="396.59">
        <walk from="-4295817#3" to="-4144040#0"/>
    </person>
    <person id="pedestrian157" depart="397.18">
        <walk from="563630394#1" to="-150032770#2"/>
    </person>
    <person id="pedestrian158" depart="397.35">
        <walk from="150041716#2" to="-624481020#1"/>
    </person>
    <person id="pedestrian159" depart="405.60">
        <walk from="478347391" to="378479743#1"/>
    </person>
    <person id="pedestrian160" depart="406.36">
        <walk from="-715835444#3" to="256105105#4"/>
    </person>
    <person id="pedestrian161" depart="408.29">
        <walk from="319910923#1" to="-715835444#4"/>
    </person>
    <person id="pedestrian162" depart="411.43">
        <walk from="-694836604" to="-28247400#0"/>
    </person>
    <person id="pedestrian163" depart="411.50">
        <walk from="31232610" to="-4144040#3"/>
    </person>
    <person id="pedestrian164" depart="413.47">
        <walk from="-689912267#0" to="-150032873"/>
    </person>
    <person id="pedestrian165" depart="420.80">
        <walk from="806364424" to="624481020#4"/>
    </person>
    <person id="pedestrian166" depart="420.90">
        <walk from="700440130#1" to="28247400#1"/>
    </person>
    <person id="pedestrian167" depart="421.72">
        <walk from="13858859" to="150041689"/>
    </person>
    <person id="pedestrian168" depart="423.39">
        <walk from="984768175" to="750168167"/>
    </person>
    <person id="pedestrian169" depart="424.71">
        <walk from="319910923#0" to="4305021#1"/>
    </person>
    <person id="pedestrian170" depart="428.50">
        <walk from="-715835444#3" to="1287285290#4"/>
    </person>
    <person id="pedestrian171" depart="432.26">
        <walk from="-285156957" to="1153038902#2"/>
    </person>
    <person id="pedestrian172" depart="435.00">
        <walk from="395456769#1" to="150041551#2"/>
    </person>
    <person id="pedestrian173" depart="436.27">
        <walk from="56015406#1" to="-689912267#0"/>
    </person>
    <person id="pedestrian174" depart="438.77">
        <walk from="359458216" to="459339932#1"/>
    </person>
    <person id="pedestrian175" depart="440.93">
        <walk from="700440139" to="255729810"/>
    </person>
    <person id="pedestrian176" depart="442.80">
        <walk from="886547966" to="255729754#1"/>
    </person>
    <person id="pedestrian177" depart="443.66">
        <walk from="-257510647#0" to="-459339929"/>
    </person>
    <person id="pedestrian178" depart="446.15">
        <walk from="-378479743#1" to="29895517"/>
    </person>
    <person id="pedestrian179" depart="447.61">
        <walk from="715835444#3" to="56015406#0"/>
    </person>
    <person id="pedestrian180" depart="449.95">
        <walk from="-150041716#0" to="365217759"/>
    </person>
    <person id="pedestrian181" depart="454.27">
        <walk from="-359458208#2" to="-539841923#0"/>
    </person>
    <person id="pedestrian182" depart="455.93">
        <walk from="319910923#2" to="256105105#7"/>
    </person>
    <person id="pedestrian183" depart="456.25">
        <walk from="624481020#0" to="-359458208#0"/>
    </person>
    <person id="pedestrian184" depart="458.31">
        <walk from="4144040#3" to="365217759"/>
    </person>
    <person id="pedestrian185" depart="464.03">
        <walk from="255729754#2" to="150041624#0"/>
    </person>
    <person id="pedestrian186" depart="464.88">
        <walk from="572523427" to="-750168164"/>
    </person>
    <person id="pedestrian187" depart="466.57">
        <walk from="884145210#0" to="-1185258336#2"/>
    </person>
    <person id="pedestrian188" depart="467.30">
        <walk from="750168165" to="886404164#1"/>
    </person>
    <person id="pedestrian189" depart="467.52">
        <walk from="-23508141#0" to="E9.14"/>
    </person>
    <person id="pedestrian190" depart="468.84">
        <walk from="150041624#0" to="-459339929"/>
    </person>
    <person id="pedestrian191" depart="469.43">
        <walk from="256105105#8" to="-378479743#1"/>
    </person>
    <person id="pedestrian192" depart="469.53">
        <walk from="700440139" to="253230759#0"/>
    </person>
    <person id="pedestrian193" depart="470.19">
        <walk from="4213557" to="115485617"/>
    </person>
    <person id="pedestrian194" depart="471.15">
        <walk from="23401995#2" to="-984768175"/>
    </person>
    <person id="pedestrian195" depart="472.69">
        <walk from="-494297578#1" to="196656222#1"/>
    </person>
    <person id="pedestrian196" depart="475.26">
        <walk from="150041699#1" to="-182982119#1"/>
    </person>
    <person id="pedestrian197" depart="477.57">
        <walk from="999293416" to="150041551#0"/>
    </person>
    <person id="pedestrian198" depart="481.27">
        <walk from="539509020" to="700440139"/>
    </person>
    <person id="pedestrian199" depart="482.98">
        <walk from="-E1.13" to="1287285290#2"/>
    </person>
    <person id="pedestrian200" depart="489.64">
        <walk from="255729810" to="-4144040#3"/>
    </person>
    <person id="pedestrian201" depart="494.55">
        <walk from="-28247400#2" to="-494297577#1"/>
    </person>
    <person id="pedestrian202" depart="497.07">
        <walk from="750168164" to="256102744"/>
    </person>
    <person id="pedestrian203" depart="497.21">
        <walk from="1287285290#4" to="-285188051#0"/>
    </person>
    <person id="pedestrian204" depart="497.94">
        <walk from="-749484709" to="115485617"/>
    </person>
    <person id="pedestrian205" depart="500.18">
        <walk from="519402125#0" to="150041716#0"/>
    </person>
    <person id="pedestrian206" depart="502.22">
        <walk from="29895520#2" to="327864903#0"/>
    </person>
    <person id="pedestrian207" depart="509.05">
        <walk from="-484022097" to="478347396#1"/>
    </person>
    <person id="pedestrian208" depart="510.95">
        <walk from="886547966" to="285295366"/>
    </person>
    <person id="pedestrian209" depart="512.02">
        <walk from="150041645#4" to="-29895520#2"/>
    </person>
    <person id="pedestrian210" depart="517.03">
        <walk from="439271817#2" to="-29895520#2"/>
    </person>
    <person id="pedestrian211" depart="517.24">
        <walk from="365216936#1" to="150041636#2"/>
    </person>
    <person id="pedestrian212" depart="518.06">
        <walk from="715802321" to="23508142#1"/>
    </person>
    <person id="pedestrian213" depart="521.76">
        <walk from="285295366" to="-150032770#5"/>
    </person>
    <person id="pedestrian214" depart="522.01">
        <walk from="-1287285290#2" to="56015406#0"/>
    </person>
    <person id="pedestrian215" depart="522.83">
        <walk from="77706449" to="319910916"/>
    </person>
    <person id="pedestrian216" depart="523.66">
        <walk from="4144040#4" to="1287285290#1"/>
    </person>
    <person id="pedestrian217" depart="525.42">
        <walk from="539841923#0" to="-4295817#0"/>
    </person>
    <person id="pedestrian218" depart="525.48">
        <walk from="359458213" to="-115485620#1"/>
    </person>
    <person id="pedestrian219" depart="532.40">
        <walk from="150041716#4" to="1153020821"/>
    </person>
    <person id="pedestrian220" depart="535.23">
        <walk from="28230108" to="319910914"/>
    </person>
    <person id="pedestrian221" depart="536.68">
        <walk from="273360755" to="150041624#3"/>
    </person>
    <person id="pedestrian222" depart="541.01">
        <walk from="150041636#1" to="-115485620#0"/>
    </person>
    <person id="pedestrian223" depart="546.34">
        <walk from="245221889" to="-1162647992"/>
    </person>
    <person id="pedestrian224" depart="546.51">
        <walk from="23101679#1" to="-56015406#1"/>
    </person>
    <person id="pedestrian225" depart="548.74">
        <walk from="987109589#0" to="-1185258336#3"/>
    </person>
    <person id="pedestrian226" depart="555.51">
        <walk from="47492539" to="319910923#2"/>
    </person>
    <person id="pedestrian227" depart="555.62">
        <walk from="459339932#1" to="700440130#0"/>
    </person>
    <person id="pedestrian228" depart="560.65">
        <walk from="-23101679#1" to="-150041716#3"/>
    </person>
    <person id="pedestrian229" depart="562.73">
        <walk from="-285156957" to="-359458208#2"/>
    </person>
    <person id="pedestrian230" depart="563.35">
        <walk from="23101679#0" to="478347391"/>
    </person>
    <person id="pedestrian231" depart="566.05">
        <walk from="-539841923#0" to="1185258339"/>
    </person>
    <person id="pedestrian232" depart="568.20">
        <walk from="1153020821" to="1244524929"/>
    </person>
    <person id="pedestrian233" depart="571.15">
        <walk from="255729814#1" to="E3"/>
    </person>
    <person id="pedestrian234" depart="574.91">
        <walk from="-4195580#1" to="327864899"/>
    </person>
    <person id="pedestrian235" depart="579.80">
        <walk from="56015406#0" to="29895520#1"/>
    </person>
    <person id="pedestrian236" depart="585.18">
        <walk from="563630392#1" to="4144040#1"/>
    </person>
    <person id="pedestrian237" depart="586.71">
        <walk from="-150041716#1" to="115485617"/>
    </person>
    <person id="pedestrian238" depart="596.82">
        <walk from="253230759#0" to="-150032770#2"/>
    </person>
    <person id="pedestrian239" depart="598.68">
        <walk from="-115485620#1" to="-31232610"/>
    </person>
    <person id="pedestrian240" depart="599.60">
        <walk from="150041716#0" to="149518793"/>
    </person>
    <person id="pedestrian241" depart="603.28">
        <walk from="4305021#0" to="255729814#1"/>
    </person>
    <person id="pedestrian242" depart="604.99">
        <walk from="563630392#1" to="-150041716#2"/>
    </person>
    <person id="pedestrian243" depart="606.76">
        <walk from="23101679#1" to="-13858859"/>
    </person>
    <person id="pedestrian244" depart="608.63">
        <walk from="-378479743#6" to="56447699#1"/>
    </person>
    <person id="pedestrian245" depart="610.91">
        <walk from="689912266" to="150041576#1"/>
    </person>
    <person id="pedestrian246" depart="612.55">
        <walk from="-149518798" to="-150041624#2"/>
    </person>
    <person id="pedestrian247" depart="621.45">
        <walk from="715835444#5" to="69990704"/>
    </person>
    <person id="pedestrian248" depart="623.76">
        <walk from="255729814#0" to="-1287285290#1"/>
    </person>
    <person id="pedestrian249" depart="624.87">
        <walk from="715910744#1" to="-715802321"/>
    </person>
    <person id="pedestrian250" depart="632.36">
        <walk from="886404164#0" to="256102750#0"/>
    </person>
    <person id="pedestrian251" depart="633.40">
        <walk from="395456769#0" to="359458219"/>
    </person>
    <person id="pedestrian252" depart="634.30">
        <walk from="1185258339" to="-150041636#0"/>
    </person>
    <person id="pedestrian253" depart="634.77">
        <walk from="-29895519#1" to="-43206409"/>
    </person>
    <person id="pedestrian254" depart="641.33">
        <walk from="52414187" to="1185258336#2"/>
    </person>
    <person id="pedestrian255" depart="644.41">
        <walk from="694836605" to="-749484712#1"/>
    </person>
    <person id="pedestrian256" depart="644.41">
        <walk from="409784476" to="-28247397#1"/>
    </person>
    <person id="pedestrian257" depart="645.67">
        <walk from="E10.25" to="365217759"/>
    </person>
    <person id="pedestrian258" depart="651.37">
        <walk from="150041716#0" to="984768176#1"/>
    </person>
    <person id="pedestrian259" depart="653.43">
        <walk from="-150032770#0" to="149518802#0"/>
    </person>
    <person id="pedestrian260" depart="658.31">
        <walk from="539509020" to="-750168167"/>
    </person>
    <person id="pedestrian261" depart="661.04">
        <walk from="4195580#2" to="881694398"/>
    </person>
    <person id="pedestrian262" depart="661.10">