<?xml version="1.0" encoding="UTF-8"?>

<!-- generated on 2024-09-22 23:06:23.012791 by osmWebWizard.py UNKNOWN
<configuration>
    <net-file value="/opt/homebrew/Cellar/sumo/1.20.0/share/sumo/tools/2024-09-22-23-06-13/osm.net.xml.gz"/>
    <output-trip-file value="/opt/homebrew/Cellar/sumo/1.20.0/share/sumo/tools/2024-09-22-23-06-13/osm.passenger.trips.xml"/>
    <route-file value="/opt/homebrew/Cellar/sumo/1.20.0/share/sumo/tools/2024-09-22-23-06-13/osm.passenger.rou.xml"/>
    <prefix value="veh"/>
    <trip-attributes value="departLane=&quot;best&quot;"/>
    <fringe-start-attributes value="departSpeed=&quot;max&quot;"/>
    <vehicle-class value="passenger"/>
    <lanes value="True"/>
    <fringe-factor value="5"/>
    <allow-fringe.min-length value="1000.0"/>
    <via-edge-types value="highway.motorway,highway.motorway_link,highway.trunk_link,highway.primary_link,highway.secondary_link,highway.tertiary_link"/>
    <min-distance value="300.0"/>
    <min-distance.fringe value="10.0"/>
    <remove-loops value="True"/>
    <validate value="True"/>
    <insertion-density value="12.0"/>
</configuration>
-->

<!-- generated on 2024-09-22 23:06:22 by Eclipse SUMO duarouter Version 1.20.0
<configuration xmlns:xsi="http://www.w3.org/2001/XMLSchema-instance" xsi:noNamespaceSchemaLocation="http://sumo.dlr.de/xsd/duarouterConfiguration.xsd">

    <input>
        <net-file value="/opt/homebrew/Cellar/sumo/1.20.0/share/sumo/tools/2024-09-22-23-06-13/osm.net.xml.gz"/>
        <route-files value="/opt/homebrew/Cellar/sumo/1.20.0/share/sumo/tools/2024-09-22-23-06-13/osm.passenger.trips.xml"/>
    </input>

    <output>
        <output-file value="/opt/homebrew/Cellar/sumo/1.20.0/share/sumo/tools/2024-09-22-23-06-13/osm.passenger.trips.xml.tmp"/>
        <alternatives-output value="NUL"/>
        <write-trips value="true"/>
    </output>

    <processing>
        <remove-loops value="true"/>
    </processing>

    <time>
        <begin value="0.0"/>
        <end value="3600.0"/>
    </time>

    <report>
        <no-warnings value="true"/>
        <ignore-errors value="true"/>
        <no-step-log value="true"/>
    </report>

</configuration>
-->

<routes xmlns:xsi="http://www.w3.org/2001/XMLSchema-instance" xsi:noNamespaceSchemaLocation="http://sumo.dlr.de/xsd/routes_file.xsd">
    <vType id="veh_passenger" vClass="passenger"/>
    <trip id="veh0" type="veh_passenger" depart="0.00" departLane="best" from="202157002#1" to="1114798610#1"/>
    <trip id="veh1" type="veh_passenger" depart="14.78" departLane="best" from="461526153#0" to="-35578576#4"/>
    <trip id="veh2" type="veh_passenger" depart="29.56" departLane="best" from="-330840125#0" to="251884680#1"/>
    <trip id="veh3" type="veh_passenger" depart="44.34" departLane="best" from="541763975" to="-1173516145#0"/>
    <trip id="veh4" type="veh_passenger" depart="59.12" departLane="best" from="-1133992734#1" to="-111833185"/>
    <trip id="veh5" type="veh_passenger" depart="73.90" departLane="best" departSpeed="max" from="-111251382#1" to="-28251222#0"/>
    <trip id="veh6" type="veh_passenger" depart="88.68" departLane="best" from="-222328410" to="171826984#2"/>
    <trip id="veh7" type="veh_passenger" depart="103.45" departLane="best" from="370359204#1" to="195397541#5"/>
    <trip id="veh8" type="veh_passenger" depart="118.23" departLane="best" from="4610374#1" to="-1101961735#0"/>
    <trip id="veh9" type="veh_passenger" depart="133.01" departLane="best" from="4610362#11" to="606078072#1"/>
    <trip id="veh10" type="veh_passenger" depart="147.79" departLane="best" from="-1101961737" to="-194069450#1"/>
    <trip id="veh11" type="veh_passenger" depart="162.57" departLane="best" from="61584187#1" to="1110526068"/>
    <trip id="veh12" type="veh_passenger" depart="177.35" departLane="best" departSpeed="max" from="-1302053249" to="120675240#3"/>
    <trip id="veh13" type="veh_passenger" depart="192.13" departLane="best" from="461526152#1" to="202156991"/>
    <trip id="veh14" type="veh_passenger" depart="206.91" departLane="best" from="4610362#2" to="339201177#3"/>
    <trip id="veh15" type="veh_passenger" depart="221.69" departLane="best" from="168940071#4" to="82654059"/>
    <trip id="veh16" type="veh_passenger" depart="236.47" departLane="best" departSpeed="max" from="111833185" to="171826984#2"/>
    <trip id="veh17" type="veh_passenger" depart="251.25" departLane="best" from="4611696" to="202157002#0"/>
    <trip id="veh18" type="veh_passenger" depart="266.03" departLane="best" from="202157002#2" to="190447766#1"/>
    <trip id="veh19" type="veh_passenger" depart="280.81" departLane="best" from="28016312" to="-1126465703#0"/>
    <trip id="veh20" type="veh_passenger" depart="295.59" departLane="best" from="-43231842#2" to="-534588621#1"/>
    <trip id="veh21" type="veh_passenger" depart="310.36" departLane="best" from="-1198409426#1" to="43231842#1"/>
    <trip id="veh22" type="veh_passenger" depart="325.14" departLane="best" from="136571494#0" to="-507023458#0"/>
    <trip id="veh23" type="veh_passenger" depart="339.92" departLane="best" from="202157002#0" to="1116360926#1"/>
    <trip id="veh24" type="veh_passenger" depart="354.70" departLane="best" from="1117432853#1" to="-330840125#0"/>
    <trip id="veh25" type="veh_passenger" depart="369.48" departLane="best" departSpeed="max" from="-4611693#2" to="606078071#0"/>
    <trip id="veh26" type="veh_passenger" depart="384.26" departLane="best" from="202817674#4" to="24913519#1"/>
    <trip id="veh27" type="veh_passenger" depart="399.04" departLane="best" from="202817674#4" to="1120993114#2"/>
    <trip id="veh28" type="veh_passenger" depart="413.82" departLane="best" departSpeed="max" from="83517332#0" to="-23121445#0"/>
    <trip id="veh30" type="veh_passenger" depart="443.38" departLane="best" from="43231842#3" to="-111833185"/>
    <trip id="veh31" type="veh_passenger" depart="458.16" departLane="best" from="743631784#0" to="-461526153#0"/>
    <trip id="veh32" type="veh_passenger" depart="472.94" departLane="best" from="339201185" to="66071373#1"/>
    <trip id="veh33" type="veh_passenger" depart="487.72" departLane="best" from="51167934#2" to="1077923225#0"/>
    <trip id="veh34" type="veh_passenger" depart="502.50" departLane="best" departSpeed="max" from="606078065" to="1198409426#1"/>
    <trip id="veh35" type="veh_passenger" depart="517.27" departLane="best" departSpeed="max" from="-4611693#2" to="-4610374#1"/>
    <trip id="veh36" type="veh_passenger" depart="532.05" departLane="best" departSpeed="max" from="171826985#0" to="4611693#1"/>
    <trip id="veh37" type="veh_passenger" depart="546.83" departLane="best" from="190447766#1" to="-51167934#0"/>
    <trip id="veh38" type="veh_passenger" depart="561.61" departLane="best" from="1126234503#0" to="-339201177#4"/>
    <trip id="veh39" type="veh_passenger" depart="576.39" departLane="best" from="882389494#1" to="15971197"/>
    <trip id="veh40" type="veh_passenger" depart="591.17" departLane="best" departSpeed="max" from="-153698390#2" to="-202817674#3"/>
    <trip id="veh41" type="veh_passenger" depart="605.95" departLane="best" from="43231842#1" to="114667396#1"/>
    <trip id="veh42" type="veh_passenger" depart="620.73" departLane="best" from="-114667396#2" to="1121011269#1"/>
    <trip id="veh44" type="veh_passenger" depart="650.29" departLane="best" departSpeed="max" from="24243052#0" to="171826984#2"/>
    <trip id="veh45" type="veh_passenger" depart="665.07" departLane="best" departSpeed="max" from="-4611693#2" to="-23121445#1"/>
    <trip id="veh46" type="veh_passenger" depart="679.85" departLane="best" departSpeed="max" from="1170522570" to="72157174#1"/>
    <trip id="veh47" type="veh_passenger" depart="694.63" departLane="best" from="51167934#2" to="4611693#1"/>
    <trip id="veh48" type="veh_passenger" depart="709.41" departLane="best" from="136571494#1" to="-23121445#2"/>
    <trip id="veh49" type="veh_passenger" depart="724.18" departLane="best" departSpeed="max" from="606078065" to="461526152#1"/>
    <trip id="veh50" type="veh_passenger" depart="738.96" departLane="best" from="-541295974#0" to="-23121445#0"/>
    <trip id="veh51" type="veh_passenger" depart="753.74" departLane="best" departSpeed="max" from="194073677#0" to="-194069450#1"/>
    <trip id="veh52" type="veh_passenger" depart="768.52" departLane="best" from="340498976#9" to="171826984#2"/>
    <trip id="veh53" type="veh_passenger" depart="783.30" departLane="best" from="4067932" to="169195795#0"/>
    <trip id="veh54" type="veh_passenger" depart="798.08" departLane="best" departSpeed="max" from="1105574291#1" to="606078071#0"/>
    <trip id="veh55" type="veh_passenger" depart="812.86" departLane="best" from="534588621#0" to="4610524#1"/>
    <trip id="veh56" type="veh_passenger" depart="827.64" departLane="best" departSpeed="max" from="-55741054" to="114667396#1"/>
    <trip id="veh58" type="veh_passenger" depart="857.20" departLane="best" from="-120675240#4" to="153698390#1"/>
    <trip id="veh59" type="veh_passenger" depart="871.98" departLane="best" from="340498988#0" to="-168940071#3"/>
    <trip id="veh60" type="veh_passenger" depart="886.76" departLane="best" from="1173516145#1" to="171826984#2"/>
    <trip id="veh61" type="veh_passenger" depart="901.54" departLane="best" departSpeed="max" from="-4611693#2" to="-461526153#0"/>
    <trip id="veh62" type="veh_passenger" depart="916.32" departLane="best" from="1133992735#0" to="-330840125#1"/>
    <trip id="veh63" type="veh_passenger" depart="931.09" departLane="best" from="168940071#6" to="339201177#3"/>
    <trip id="veh64" type="veh_passenger" depart="945.87" departLane="best" from="83517332#1" to="234463928#1"/>
    <trip id="veh65" type="veh_passenger" depart="960.65" departLane="best" from="-168940071#2" to="-370359204#1"/>
    <trip id="veh66" type="veh_passenger" depart="975.43" departLane="best" from="1101961674#3" to="195397541#4"/>
    <trip id="veh67" type="veh_passenger" depart="990.21" departLane="best" from="-437325047#0" to="-339201177#5"/>
    <trip id="veh68" type="veh_passenger" depart="1004.99" departLane="best" from="-43231842#3" to="-534588621#1"/>
    <trip id="veh69" type="veh_passenger" depart="1019.77" departLane="best" from="202157002#2" to="-1159156576#0"/>
    <trip id="veh70" type="veh_passenger" depart="1034.55" departLane="best" departSpeed="max" from="-454285423" to="24913519#1"/>
    <trip id="veh71" type="veh_passenger" depart="1049.33" departLane="best" departSpeed="max" from="606078065" to="188914559"/>
    <trip id="veh72" type="veh_passenger" depart="1064.11" departLane="best" from="1173516144#0" to="42103020#2"/>
    <trip id="veh73" type="veh_passenger" depart="1078.89" departLane="best" from="4610362#2" to="24243101"/>
    <trip id="veh74" type="veh_passenger" depart="1093.67" departLane="best" from="1133992735#0" to="1217865061#0"/>
    <trip id="veh75" type="veh_passenger" depart="1108.45" departLane="best" from="30721662#1" to="251884680#0"/>
    <trip id="veh76" type="veh_passenger" depart="1123.23" departLane="best" from="202157002#2" to="-4610472#0"/>
    <trip id="veh78" type="veh_passenger" depart="1152.78" departLane="best" from="-1133992734#1" to="-507023458#0"/>
    <trip id="veh79" type="veh_passenger" depart="1167.56" departLane="best" from="4610375#0" to="55741054"/>
    <trip id="veh80" type="veh_passenger" depart="1182.34" departLane="best" from="-4402228" to="46140376#2"/>
    <trip id="veh81" type="veh_passenger" depart="1197.12" departLane="best" from="169195795#1" to="-1127596842#0"/>
    <trip id="veh82" type="veh_passenger" depart="1211.90" departLane="best" from="882389494#1" to="4611693#2"/>
    <trip id="veh83" type="veh_passenger" depart="1226.68" departLane="best" from="68647306#7" to="55741054"/>
    <trip id="veh84" type="veh_passenger" depart="1241.46" departLane="best" from="461526152#1" to="-195411606"/>
    <trip id="veh85" type="veh_passenger" depart="1256.24" departLane="best" from="-120675240#4" to="-339201177#1"/>
    <trip id="veh86" type="veh_passenger" depart="1271.02" departLane="best" departSpeed="max" from="111833185" to="831659093#0"/>
    <trip id="veh87" type="veh_passenger" depart="1285.80" departLane="best" departSpeed="max" from="-4611693#2" to="42103020#2"/>
    <trip id="veh88" type="veh_passenger" depart="1300.58" departLane="best" departSpeed="max" from="1170522570" to="114667396#2"/>
    <trip id="veh90" type="veh_passenger" depart="1330.14" departLane="best" departSpeed="max" from="171826985#0" to="-1119854969#0"/>
    <trip id="veh91" type="veh_passenger" depart="1344.91" departLane="best" departSpeed="max" from="-202156991" to="-6228081#1"/>
    <trip id="veh92" type="veh_passenger" depart="1359.69" departLane="best" from="68647306#7" to="190447767"/>
    <trip id="veh93" type="veh_passenger" depart="1374.47" departLane="best" from="168940071#8" to="340498976#7"/>
    <trip id="veh94" type="veh_passenger" depart="1389.25" departLane="best" from="-1133992734#1" to="195397541#2"/>
    <trip id="veh95" type="veh_passenger" depart="1404.03" departLane="best" from="137630045#1" to="251884680#0"/>
    <trip id="veh96" type="veh_passenger" depart="1418.81" departLane="best" departSpeed="max" from="-202156991" to="-8008608"/>
    <trip id="veh97" type="veh_passenger" depart="1433.59" departLane="best" from="-1198409426#1" to="234463928#0"/>
    <trip id="veh98" type="veh_passenger" depart="1448.37" departLane="best" departSpeed="max" from="194069450#0" to="251884680#1"/>
    <trip id="veh99" type="veh_passenger" depart="1463.15" departLane="best" from="541763974" to="-4610374#1"/>
    <trip id="veh100" type="veh_passenger" depart="1477.93" departLane="best" departSpeed="max" from="194069450#0" to="202157002#1"/>
    <trip id="veh101" type="veh_passenger" depart="1492.71" departLane="best" from="1127596842#0" to="195397541#0"/>
    <trip id="veh102" type="veh_passenger" depart="1507.49" departLane="best" from="158023913#1" to="61583423#1"/>
    <trip id="veh103" type="veh_passenger" depart="1522.27" departLane="best" from="-339201177#2" to="31313667#0"/>
    <trip id="veh104" type="veh_passenger" depart="1537.05" departLane="best" departSpeed="max" from="-454285423" to="1126244314#0"/>
    <trip id="veh105" type="veh_passenger" depart="1551.82" departLane="best" from="23809670#1" to="-474362271"/>
    <trip id="veh106" type="veh_passenger" depart="1566.60" departLane="best" from="136571494#1" to="169195795#0"/>
    <trip id="veh107" type="veh_passenger" depart="1581.38" departLane="best" from="28251222#1" to="1198409426#0"/>
    <trip id="veh108" type="veh_passenger" depart="1596.16" departLane="best" departSpeed="max" from="-4611693#2" to="61583423#1"/>
    <trip id="veh109" type="veh_passenger" depart="1610.94" departLane="best" from="534588621#1" to="465376254#3"/>
    <trip id="veh110" type="veh_passenger" depart="1625.72" departLane="best" from="1117432853#1" to="-195397539"/>
    <trip id="veh111" type="veh_passenger" depart="1640.50" departLane="best" from="4611698" to="30720544#1"/>
    <trip id="veh112" type="veh_passenger" depart="1655.28" departLane="best" from="195397541#0" to="831659093#1"/>
    <trip id="veh113" type="veh_passenger" depart="1670.06" departLane="best" from="4610476#5" to="-474362271"/>
    <trip id="veh114" type="veh_passenger" depart="1684.84" departLane="best" from="23121445#4" to="606078071#0"/>
    <trip id="veh115" type="veh_passenger" depart="1699.62" departLane="best" departSpeed="max" from="-188914559" to="-158023913#0"/>
    <trip id="veh116" type="veh_passenger" depart="1714.40" departLane="best" departSpeed="max" from="-153698390#2" to="171826984#2"/>
    <trip id="veh117" type="veh_passenger" depart="1729.18" departLane="best" from="4611694#1" to="202156991"/>
    <trip id="veh118" type="veh_passenger" depart="1743.95" departLane="best" from="1097921784#1" to="-28251222#0"/>
    <trip id="veh119" type="veh_passenger" depart="1758.73" departLane="best" from="202156994#0" to="-4611694#1"/>
    <trip id="veh120" type="veh_passenger" depart="1773.51" departLane="best" from="1079495669#1" to="-534588621#1"/>
    <trip id="veh121" type="veh_passenger" depart="1788.29" departLane="best" from="46140382" to="1198409426#1"/>
    <trip id="veh122" type="veh_passenger" depart="1803.07" departLane="best" from="1133992735#0" to="-492340367#3"/>
    <trip id="veh123" type="veh_passenger" depart="1817.85" departLane="best" from="-1101961674#3" to="-370359204#1"/>
    <trip id="veh124" type="veh_passenger" depart="1832.63" departLane="best" from="202157002#0" to="1195359141"/>
    <trip id="veh125" type="veh_passenger" depart="1847.41" departLane="best" from="339201177#2" to="171826984#2"/>
    <trip id="veh126" type="veh_passenger" depart="1862.19" departLane="best" from="-114667396#0" to="1102369938"/>
    <trip id="veh127" type="veh_passenger" depart="1876.97" departLane="best" from="1171295120#1" to="4773465#2"/>
    <trip id="veh128" type="veh_passenger" depart="1891.75" departLane="best" departSpeed="max" from="606078065" to="171826984#2"/>
    <trip id="veh129" type="veh_passenger" depart="1906.53" departLane="best" from="4611698" to="195397541#0"/>
    <trip id="veh130" type="veh_passenger" depart="1921.31" departLane="best" from="-6228081#1" to="-51167934#1"/>
    <trip id="veh131" type="veh_passenger" depart="1936.09" departLane="best" from="-437325047#1" to="46140376#2"/>
    <trip id="veh132" type="veh_passenger" depart="1950.86" departLane="best" departSpeed="max" from="54781811" to="-330840125#0"/>
    <trip id="veh133" type="veh_passenger" depart="1965.64" departLane="best" from="1126244314#0" to="202157002#1"/>
    <trip id="veh134" type="veh_passenger" depart="1980.42" departLane="best" departSpeed="max" from="-202156991" to="606078072#1"/>
    <trip id="veh135" type="veh_passenger" depart="1995.20" departLane="best" from="490365295#0" to="82654059"/>
    <trip id="veh136" type="veh_passenger" depart="2009.98" departLane="best" from="4610375#0" to="465376255#2"/>
    <trip id="veh137" type="veh_passenger" depart="2024.76" departLane="best" departSpeed="max" from="-111251382#1" to="339201217"/>
    <trip id="veh138" type="veh_passenger" depart="2039.54" departLane="best" from="1097921784#1" to="606078072#1"/>
    <trip id="veh139" type="veh_passenger" depart="2054.32" departLane="best" from="4610375#0" to="-461526153#0"/>
    <trip id="veh140" type="veh_passenger" depart="2069.10" departLane="best" from="42103020#2" to="-137630045#0"/>
    <trip id="veh141" type="veh_passenger" depart="2083.88" departLane="best" from="507023458#1" to="46140376#1"/>
    <trip id="veh142" type="veh_passenger" depart="2098.66" departLane="best" from="-38208961" to="-4610375#0"/>
    <trip id="veh143" type="veh_passenger" depart="2113.44" departLane="best" departSpeed="max" from="1170522570" to="-751595930"/>
    <trip id="veh144" type="veh_passenger" depart="2128.22" departLane="best" from="-437325047#0" to="-387892378"/>
    <trip id="veh145" type="veh_passenger" depart="2143.00" departLane="best" departSpeed="max" from="-111251382#1" to="24243107#1"/>
    <trip id="veh146" type="veh_passenger" depart="2157.77" departLane="best" from="1077923225#0" to="46140376#2"/>
    <trip id="veh147" type="veh_passenger" depart="2172.55" departLane="best" from="68647306#5" to="-507023458#1"/>
    <trip id="veh148" type="veh_passenger" depart="2187.33" departLane="best" from="202157002#2" to="1126244314#1"/>
    <trip id="veh149" type="veh_passenger" depart="2202.11" departLane="best" from="831659093#1" to="169999355#1"/>
    <trip id="veh150" type="veh_passenger" depart="2216.89" departLane="best" departSpeed="max" from="606078065" to="-158023913#0"/>
    <trip id="veh152" type="veh_passenger" depart="2246.45" departLane="best" from="68647306#2" to="-4611696"/>
    <trip id="veh153" type="veh_passenger" depart="2261.23" departLane="best" from="30721662#1" to="1077923225#0"/>
    <trip id="veh154" type="veh_passenger" depart="2276.01" departLane="best" departSpeed="max" from="194073677#0" to="-15977422#1"/>
    <trip id="veh155" type="veh_passenger" depart="2290.79" departLane="best" departSpeed="max" from="4610524#1" to="30721660#3"/>
    <trip id="veh156" type="veh_passenger" depart="2305.57" departLane="best" from="-1101961674#2" to="55741054"/>
    <trip id="veh157" type="veh_passenger" depart="2320.35" departLane="best" from="-168940071#6" to="31313667#2"/>
    <trip id="veh158" type="veh_passenger" depart="2335.13" departLane="best" from="339201177#2" to="24913519#1"/>
    <trip id="veh159" type="veh_passenger" depart="2349.91" departLane="best" from="1113726463" to="-1159156576#0"/>
    <trip id="veh160" type="veh_passenger" depart="2364.68" departLane="best" from="23121445#4" to="1102369938"/>
    <trip id="veh161" type="veh_passenger" depart="2379.46" departLane="best" from="-66071379#0" to="4611698"/>
    <trip id="veh162" type="veh_passenger" depart="2394.24" departLane="best" from="30720544#1" to="-743631784#0"/>
    <trip id="veh163" type="veh_passenger" depart="2409.02" departLane="best" from="-541295974#0" to="1127592486#1"/>
    <trip id="veh164" type="veh_passenger" depart="2423.80" departLane="best" from="1126237668#1" to="-6228081#1"/>
    <trip id="veh165" type="veh_passenger" depart="2438.58" departLane="best" from="-168940071#6" to="-114667396#0"/>
    <trip id="veh166" type="veh_passenger" depart="2453.36" departLane="best" departSpeed="max" from="606078065" to="25294728#0"/>
    <trip id="veh167" type="veh_passenger" depart="2468.14" departLane="best" from="-541295974#0" to="171826984#2"/>
    <trip id="veh168" type="veh_passenger" depart="2482.92" departLane="best" from="-1101961674#1" to="-534588621#0"/>
    <trip id="veh169" type="veh_passenger" depart="2497.70" departLane="best" from="-114667396#2" to="190447768#1"/>
    <trip id="veh170" type="veh_passenger" depart="2512.48" departLane="best" from="23013165" to="120675240#4"/>
    <trip id="veh171" type="veh_passenger" depart="2527.26" departLane="best" from="-1151064402#1" to="-339201177#1"/>
    <trip id="veh172" type="veh_passenger" depart="2542.04" departLane="best" from="1173516144#0" to="-534588621#0"/>
    <trip id="veh173" type="veh_passenger" depart="2556.82" departLane="best" from="-437325047#1" to="-202817674#3"/>
    <trip id="veh174" type="veh_passenger" depart="2571.59" departLane="best" from="-120675240#3" to="168940071#2"/>
    <trip id="veh176" type="veh_passenger" depart="2601.15" departLane="best" from="-330840125#0" to="1114798610#1"/>
    <trip id="veh177" type="veh_passenger" depart="2615.93" departLane="best" from="4610351#0" to="1305423286#0"/>
    <trip id="veh178" type="veh_passenger" depart="2630.71" departLane="best" from="-461526153#0" to="-1159156576#0"/>
    <trip id="veh179" type="veh_passenger" depart="2645.49" departLane="best" from="1127592486#1" to="-202817674#5"/>
    <trip id="veh180" type="veh_passenger" depart="2660.27" departLane="best" from="31313667#0" to="606078072#1"/>
    <trip id="veh181" type="veh_passenger" depart="2675.05" departLane="best" from="-1305423286#0" to="-4610374#0"/>
    <trip id="veh182" type="veh_passenger" depart="2689.83" departLane="best" from="23013165" to="1101961674#4"/>
    <trip id="veh183" type="veh_passenger" depart="2704.61" departLane="best" from="339201217" to="-370359204#1"/>
    <trip id="veh184" type="veh_passenger" depart="2719.39" departLane="best" departSpeed="max" from="-153698390#2" to="114667396#3"/>
    <trip id="veh185" type="veh_passenger" depart="2734.17" departLane="best" departSpeed="max" from="158023913#0" to="-1127595983"/>
    <trip id="veh186" type="veh_passenger" depart="2748.95" departLane="best" from="4610375#0" to="4611698"/>
    <trip id="veh187" type="veh_passenger" depart="2763.73" departLane="best" departSpeed="max" from="1170522570" to="454285423"/>
    <trip id="veh188" type="veh_passenger" depart="2778.50" departLane="best" from="-62363402" to="831694400#0"/>
    <trip id="veh190" type="veh_passenger" depart="2808.06" departLane="best" from="54048862#2" to="202156994#0"/>
    <trip id="veh191" type="veh_passenger" depart="2822.84" departLane="best" from="30720544#1" to="-1123106322#1"/>
    <trip id="veh192" type="veh_passenger" depart="2837.62" departLane="best" from="4611696" to="171826984#2"/>
    <trip id="veh193" type="veh_passenger" depart="2852.40" departLane="best" departSpeed="max" from="54781811" to="340498976#3"/>
    <trip id="veh194" type="veh_passenger" depart="2867.18" departLane="best" from="1173516145#1" to="4610524#0"/>
    <trip id="veh195" type="veh_passenger" depart="2881.96" departLane="best" from="4610374#0" to="23013165"/>
    <trip id="veh196" type="veh_passenger" depart="2896.74" departLane="best" from="340498988#0" to="-168940071#5"/>
    <trip id="veh197" type="veh_passenger" depart="2911.52" departLane="best" from="1173516145#1" to="-534588621#0"/>
    <trip id="veh198" type="veh_passenger" depart="2926.30" departLane="best" departSpeed="max" from="-4611693#2" to="30720544#0"/>
    <trip id="veh199" type="veh_passenger" depart="2941.08" departLane="best" from="168940071#7" to="-168942727#1"/>
    <trip id="veh200" type="veh_passenger" depart="2955.86" departLane="best" from="-437325047#0" to="606078072#1"/>
    <trip id="veh201" type="veh_passenger" depart="2970.64" departLane="best" from="28251222#1" to="-1151064396"/>
    <trip id="veh202" type="veh_passenger" depart="2985.41" departLane="best" from="1126244314#1" to="171826984#2"/>
    <trip id="veh203" type="veh_passenger" depart="3000.19" departLane="best" from="1127592486#1" to="-31313667#1"/>
    <trip id="veh204" type="veh_passenger" depart="3014.97" departLane="best" from="1127596842#1" to="534588621#1"/>
    <trip id="veh205" type="veh_passenger" depart="3029.75" departLane="best" from="190447766#1" to="606078072#1"/>
    <trip id="veh206" type="veh_passenger" depart="3044.53" departLane="best" from="465376255#0" to="35578557#2"/>
    <trip id="veh207" type="veh_passenger" depart="3059.31" departLane="best" from="465376240#0" to="72157174#1"/>
    <trip id="veh208" type="veh_passenger" depart="3074.09" departLane="best" from="1127596842#0" to="340498976#7"/>
    <trip id="veh209" type="veh_passenger" depart="3088.87" departLane="best" from="340498982#0" to="202156991"/>
    <trip id="veh210" type="veh_passenger" depart="3103.65" departLane="best" from="370359204#1" to="-339201177#4"/>
    <trip id="veh211" type="veh_passenger" depart="3118.43" departLane="best" from="1149417521#1" to="-111833185"/>
    <trip id="veh212" type="veh_passenger" depart="3133.21" departLane="best" from="-1101961674#2" to="25294728#1"/>
    <trip id="veh213" type="veh_passenger" depart="3147.99" departLane="best" from="1126244314#0" to="-195397541#5"/>
    <trip id="veh214" type="veh_passenger" depart="3162.77" departLane="best" from="1170522572#0" to="-168940071#2"/>
    <trip id="veh215" type="veh_passenger" depart="3177.54" departLane="best" from="195397561#4" to="-111833185"/>
    <trip id="veh216" type="veh_passenger" depart="3192.32" departLane="best" from="1121012037#1" to="183415643"/>
    <trip id="veh217" type="veh_passenger" depart="3207.10" departLane="best" departSpeed="max" from="-111251382#1" to="-23121445#2"/>
    <trip id="veh218" type="veh_passenger" depart="3221.88" departLane="best" departSpeed="max" from="-188914559" to="1198409426#2"/>
    <trip id="veh219" type="veh_passenger" depart="3236.66" departLane="best" from="-1126465423" to="1120993114#2"/>
    <trip id="veh220" type="veh_passenger" depart="3251.44" departLane="best" departSpeed="max" from="-34848160#3" to="1101961674#4"/>
    <trip id="veh221" type="veh_passenger" depart="3266.22" departLane="best" from="340498976#9" to="1120993114#2"/>
    <trip id="veh222" type="veh_passenger" depart="3281.00" departLane="best" from="339201219" to="4610524#1"/>
    <trip id="veh223" type="veh_passenger" depart="3295.78" departLane="best" from="-4610472#2" to="-1173516144#0"/>
    <trip id="veh224" type="veh_passenger" depart="3310.56" departLane="best" departSpeed="max" from="1105574291#1" to="171826984#2"/>
    <trip id="veh226" type="veh_passenger" depart="3340.12" departLane="best" from="284493291#0" to="-28251222#0"/>
    <trip id="veh227" type="veh_passenger" depart="3354.90" departLane="best" from="-1110526068" to="-194069450#1"/>
    <trip id="veh228" type="veh_passenger" depart="3369.68" departLane="best" from="168940071#6" to="24913519#1"/>
    <trip id="veh229" type="veh_passenger" depart="3384.45" departLane="best" departSpeed="max" from="171826985#0" to="-339201177#3"/>
    <trip id="veh230" type="veh_passenger" depart="3399.23" departLane="best" from="251884680#1" to="35578559"/>
    <trip id="veh231" type="veh_passenger" depart="3414.01" departLane="best" from="339201185" to="-158023913#0"/>
    <trip id="veh232" type="veh_passenger" depart="3428.79" departLane="best" from="4610479#1" to="82654059"/>
    <trip id="veh233" type="veh_passenger" depart="3443.57" departLane="best" from="1097921784#1" to="-1159156576#0"/>
    <trip id="veh234" type="veh_passenger" depart="3458.35" departLane="best" from="202156994#0" to="-202817674#3"/>
    <trip id="veh235" type="veh_passenger" depart="3473.13" departLane="best" from="-137630045#0" to="-387892378"/>
    <trip id="veh236" type="veh_passenger" depart="3487.91" departLane="best" from="461526153#0" to="195411606"/>
    <trip id="veh237" type="veh_passenger" depart="3502.69" departLane="best" from="-168940071#2" to="82654059"/>
    <trip id="veh239" type="veh_passenger" depart="3532.25" departLane="best" from="114667396#1" to="1119837507#1"/>
    <trip id="veh240" type="veh_passenger" depart="3547.03" departLane="best" from="153698394#2" to="1111982484#1"/>
    <trip id="veh241" type="veh_passenger" depart="3561.81" departLane="best" from="-461526153#0" to="4610476#5"/>