<?xml version="1.0" encoding="UTF-8"?>

<!-- generated on 2024-11-28 17:33:21.708868 by randomTrips.py UNKNOWN
<configuration>
    <net-file value="/opt/homebrew/opt/sumo/share/sumo/tools/2024-10-08-17-29-51/241128/241109.net.xml"/>
    <route-file value="241031_random_route_bicycles.rou.xml"/>
    <prefix value="bike"/>
    <vehicle-class value="bicycle"/>
    <verbose value="True"/>
    <insertion-density value="70.0"/>
    <random-depart value="True"/>
</configuration>
-->

<!-- generated on 2024-11-28 17:33:21 by Eclipse SUMO duarouter Version 1.20.0
<configuration xmlns:xsi="http://www.w3.org/2001/XMLSchema-instance" xsi:noNamespaceSchemaLocation="http://sumo.dlr.de/xsd/duarouterConfiguration.xsd">

    <input>
        <net-file value="/opt/homebrew/opt/sumo/share/sumo/tools/2024-10-08-17-29-51/241128/241109.net.xml"/>
        <route-files value="trips.trips.xml"/>
    </input>

    <output>
        <output-file value="241031_random_route_bicycles.rou.xml"/>
        <alternatives-output value="NUL"/>
    </output>

    <time>
        <begin value="0.0"/>
        <end value="3600.0"/>
    </time>

    <report>
        <verbose value="true"/>
        <ignore-errors value="true"/>
        <no-step-log value="true"/>
    </report>

</configuration>
-->

<routes xmlns:xsi="http://www.w3.org/2001/XMLSchema-instance" xsi:noNamespaceSchemaLocation="http://sumo.dlr.de/xsd/routes_file.xsd">
    <vType id="bike_bicycle" vClass="bicycle"/>
    <vehicle id="bike0" type="bike_bicycle" depart="1.75">
        <route edges="-60263960 715835444#1 -715835444#1 60263960 116556688 43135644#0 715913363#2 1290085525#0 1290085525#1 700440148 378479743#0 378479743#1 378479743#2 378479743#3 378479743#4 378479743#5 378479743#6 700236092#0 700236092#1 700236093 44973978 506013711#1"/>
    </vehicle>
    <vehicle id="bike1" type="bike_bicycle" depart="3.00">
        <route edges="56163443#1 700440137 700440134 214812788#2 73372559 -689912267#0 -624481020#4 -28247401 28247401 624481020#4 689912267#0 214812786 715913363#2 1290085525#0 1290085525#1 700440148 378479743#0 378479743#1 378479743#2 378479743#3 378479743#4 378479743#5 378479743#6 700236092#0 700236092#1 700236093 44973978 506013711#1 35574708#1"/>
    </vehicle>
    <vehicle id="bike2" type="bike_bicycle" depart="10.52">
        <route edges="-700440130#0 -196656222#2 -196656222#1 -196656222#0 -53207957 150041579#0 150041579#2 150041578 150041580 149518769#1 150041593 196656222#0 196656222#1 196656222#2 700440130#0 700440130#1 700440128 4295817#0 -23508224 -715835444#5 -715835444#4 -715835444#3 -715835444#2 -715835444#1 -4195580#2 -4195580#1 -4195580#0 4144040#1 4144040#2 -484022097 -4195610#2 -4195610#0 -75392301#1 -75392301#0 -378479743#1 -378479743#0 700440131 506015829#1 E0 E2"/>
    </vehicle>
    <vehicle id="bike3" type="bike_bicycle" depart="14.49">
        <route edges="E2 116556686#1 -60263960 715835444#1 -715835444#1 60263960 116556688 43135644#0 715913363#2 1290085525#0 1290085525#1 700440148 378479743#0 378479743#1 378479743#2 378479743#3 378479743#4 378479743#5 378479743#6 -1265069358#1 -1265069360#0 1265069359 1265069358#1 -378479743#6 -378479743#5 -378479743#4 -23248109#1 -23248109#0 23248109#0"/>
    </vehicle>
    <vehicle id="bike4" type="bike_bicycle" depart="29.14">
        <route edges="59591195#2 73372559 -689912267#0 -624481020#4 -28247401 28247401 624481020#4 689912267#0 214812786 715913363#2 1290085525#0 1290085525#1 700440148 378479743#0 378479743#1 378479743#2 378479743#3 378479743#4 378479743#5 378479743#6 -1265069358#1 -1265069360#0 1265069359 1265069358#1 -378479743#6 -378479743#5 -378479743#4 -23248109#1"/>
    </vehicle>
    <vehicle id="bike5" type="bike_bicycle" depart="33.07">
        <route edges="700440130#0 700440130#1 700440128 4295817#0 -23508224 -715835444#5 -715835444#4 -715835444#3 -715835444#2 -715835444#1 -4195580#2 -4195580#1 -4195580#0 4144040#1 4144040#2 -484022097 -4195610#2 -4195610#0 -75392301#1 -75392301#0 -378479743#1 -378479743#0"/>
    </vehicle>
    <vehicle id="bike6" type="bike_bicycle" depart="41.19">
        <route edges="116556688 43135644#0 378479740#1 -700440136 -56163443#3 182982119#0 881694399 -881694399 -182982119#1 56163443#1"/>
    </vehicle>
    <vehicle id="bike7" type="bike_bicycle" depart="50.54">
        <route edges="378479743#0 378479743#1 75392301#0 285188051#0 -285188051#0 -75392301#0 -378479743#1 -378479743#0 700440131 506015829#1 E0 E2 378479740#1 -700440136 -56163443#3 -150041594#1 -1290085526#1"/>
    </vehicle>
    <vehicle id="bike8" type="bike_bicycle" depart="56.27">
        <route edges="-700440128 -700440130#1 -700440130#0 -196656222#2 -196656222#1 -196656222#0 -53207957 150041579#0 150041579#2 150041578 150041580 149518769#1 150041593 196656222#0 196656222#1 196656222#2 700440130#0 700440130#1 700440128 4295817#0 -23508224"/>
    </vehicle>
    <vehicle id="bike9" type="bike_bicycle" depart="57.45">
        <route edges="150032770#5 150032770#6 103958941#0 -149518804#3 -149518804#2 4019053#2 -150032770#6 -150032770#5 -150032770#2 -150032770#1 -150032770#0 327864903#0 327864903#1 218848625#1 539841923#0 539841923#1 -23015831 4195610#0 4195610#2 484022097 -4144040#2 -4144040#1 4195580#0 4195580#1 4195580#2 715835444#1 -23508141#0"/>
    </vehicle>
    <vehicle id="bike10" type="bike_bicycle" depart="60.45">
        <route edges="-182982119#1 -150041551#3 -150041551#1 -150041551#0 -715835444#3 -715835444#2 -715835444#1 -4195580#2 -4195580#1 -4195580#0 4144040#1 4144040#2 -484022097 -4195610#2 -4195610#0 23015831 -539841923#1 -539841923#0 -218848625#1 -327864903#1 -327864903#0 150032770#0 150032770#1 150032770#2 150032770#5 150032770#6"/>
    </vehicle>
    <vehicle id="bike11" type="bike_bicycle" depart="70.44">
        <route edges="116556688 43135644#0 715913363#2 1290085525#0 1290085525#1 700440148 378479743#0 378479743#1 378479743#2 378479743#3 378479743#4 378479743#5 378479743#6 700236092#0 700236092#1 700236093 44973978 506013711#1 35574708#1"/>
    </vehicle>
    <vehicle id="bike12" type="bike_bicycle" depart="79.53">
        <route edges="150041565 700440130#0 700440130#1 700440128 4295817#0 -4295817#0"/>
    </vehicle>
    <vehicle id="bike13" type="bike_bicycle" depart="79.77">
        <route edges="378479743#5 378479743#6 -1265069358#1 -1265069360#0 1265069359 1265069358#1 -378479743#6 -378479743#5 -378479743#4 -378479743#3 -378479743#2 -378479743#1 -378479743#0 700440131 506015829#1 E0 E2 378479740#1 -700440136 -56163443#3 -150041594#1 -1290085526#1 -700440129 4295817#0"/>
    </vehicle>
    <vehicle id="bike17" type="bike_bicycle" depart="87.95">
        <route edges="700236093 44973978 506013711#1 4019053#2 -150032770#6 -150032770#5 -150032770#2 -150032770#1 -806364424 806364424 150032770#1"/>
    </vehicle>
    <vehicle id="bike18" type="bike_bicycle" depart="101.47">
        <route edges="-23508141#1 -715835444#1 -4195580#2 -4195580#1 -4195580#0 4144040#1 4144040#2 -484022097 -4195610#2 -4195610#0 4195610#0"/>
    </vehicle>
    <vehicle id="bike19" type="bike_bicycle" depart="102.33">
        <route edges="150041551#2 56163443#1 700440137 700440134 214812788#2 73372559 -689912267#0 -624481020#4 -28247401 28247401 624481020#4 689912267#0 214812786 715913363#2 1290085525#0 1290085525#1 700440148"/>
    </vehicle>
    <vehicle id="bike20" type="bike_bicycle" depart="105.34">
        <route edges="-715835444#3 -715835444#2 -715835444#1 60263960 116556688 43135644#0 715913363#2 1290085525#0 1290085525#1 700440148 378479743#0 378479743#1 378479743#2 378479743#3 378479743#4 378479743#5 378479743#6 -1265069358#1 -1265069360#0 1265069359 1265069358#1 -378479743#6 -378479743#5 -378479743#4 -378479743#3"/>
    </vehicle>
    <vehicle id="bike21" type="bike_bicycle" depart="111.89">
        <route edges="-378479743#1 -378479743#0 700440131 506015829#1 E0 E3 59591195#1 59591195#2 73372559 -689912267#0 -624481020#4 -28247401 28247401 624481020#4 689912267#0 214812786 715913363#2 1290085525#0 1290085525#1 700440148 378479743#0 378479743#1 378479743#2 378479743#3"/>
    </vehicle>
    <vehicle id="bike22" type="bike_bicycle" depart="117.87">
        <route edges="378479743#0 378479743#1 75392301#0 75392301#1 4195610#0"/>
    </vehicle>
    <vehicle id="bike23" type="bike_bicycle" depart="127.44">
        <route edges="1290085525#0 1290085525#1 -4144040#4 -4144040#3 -4144040#2 -4144040#1 4195580#0 4195580#1 4195580#2 60263960 116556688 43135644#0 378479740#1"/>
    </vehicle>
    <vehicle id="bike24" type="bike_bicycle" depart="130.74">
        <route edges="-70205228#0 -23508141#1 715835444#2 715835444#3 150041551#0 150041551#1 150041551#2 182982119#0"/>
    </vehicle>
    <vehicle id="bike25" type="bike_bicycle" depart="133.52">
        <route edges="150032770#6 103958941#0 -149518804#3 -149518804#2 4019053#2 -150032770#6 -150032770#5 -150032770#2 -150032770#1 -150032770#0 327864903#0 327864903#1 218848625#1 539841923#0 539841923#1 -23015831 -75392301#1 -75392301#0 -378479743#1 -378479743#0 700440131 506015829#1 E0 E3 59591195#1"/>
    </vehicle>
    <vehicle id="bike27" type="bike_bicycle" depart="151.38">
        <route edges="700440131 506015829#1 E0 E2 116556686#1 -60263960 715835444#1 -23508141#0 23508142#0 23508142#1 -23508142#1 -23508142#0 23508141#0"/>
    </vehicle>
    <vehicle id="bike28" type="bike_bicycle" depart="156.33">
        <route edges="700440130#0 700440130#1 700440128 4295817#0 -23508224 -715835444#5 -715835444#4 -715835444#3 -715835444#2 -715835444#1 -4195580#2 -4195580#1 -4195580#0 4144040#1 4144040#2 -484022097 -4195610#2 -4195610#0 23015831 -539841923#1 -539841923#0 -218848625#1 -327864903#1 -327864903#0 150032770#0 150032770#1"/>
    </vehicle>
    <vehicle id="bike29" type="bike_bicycle" depart="162.18">
        <route edges="700440137 700440134 116556686#1 -60263960 715835444#1 715835444#2 715835444#3 150041551#0 150041551#1 -4295817#3 -4295817#1 -4295817#0 700440129 1290085526#0"/>
    </vehicle>
    <vehicle id="bike30" type="bike_bicycle" depart="163.24">
        <route edges="624481020#4 689912267#0 214812786 715913363#2 1290085525#0"/>
    </vehicle>
    <vehicle id="bike31" type="bike_bicycle" depart="163.90">
        <route edges="43135644#0 378479740#1 -700440136"/>
    </vehicle>
    <vehicle id="bike32" type="bike_bicycle" depart="164.07">
        <route edges="-715835444#2 -715835444#1 60263960 116556688 43135644#0 378479740#1 -700440136 -56163443#3"/>
    </vehicle>
    <vehicle id="bike33" type="bike_bicycle" depart="164.58">
        <route edges="715835444#5 23508224 -23508224 -715835444#5 -715835444#4 -715835444#3 -715835444#2 -715835444#1 -4195580#2 -4195580#1 -4195580#0 4144040#1 4144040#2 4144040#3"/>
    </vehicle>
    <vehicle id="bike34" type="bike_bicycle" depart="178.59">
        <route edges="150041580 149518769#1 150041593 196656222#0 196656222#1 196656222#2 -150041565 150041565 -196656222#2"/>
    </vehicle>
    <vehicle id="bike35" type="bike_bicycle" depart="181.41">
        <route edges="-23015831 23015831 -539841923#1 -539841923#0 -218848625#1 -327864903#1 -327864903#0 150032770#0 150032770#1 150032770#2"/>
    </vehicle>
    <vehicle id="bike36" type="bike_bicycle" depart="185.17">
        <route edges="484022097 4144040#3 4144040#4 700440148 378479743#0 378479743#1 378479743#2 378479743#3 378479743#4 378479743#5 378479743#6 700236092#0 700236092#1 700236093 44973978 506013711#1 149518804#2 149518804#3 797259708#1 103958941#0"/>
    </vehicle>
    <vehicle id="bike37" type="bike_bicycle" depart="186.18">
        <route edges="-378479743#1 -378479743#0 700440131 506015829#1 E0 E2 378479740#1 -700440136 -56163443#3 182982119#0 881694399 -881694399 -182982119#1 -150041551#3"/>
    </vehicle>
    <vehicle id="bike38" type="bike_bicycle" depart="188.95">
        <route edges="715913363#2 1290085525#0 1290085525#1 -4144040#4 -4144040#3 -4144040#2 -4144040#1 4195580#0 4195580#1 4195580#2 715835444#1 23508141#1"/>
    </vehicle>
    <vehicle id="bike39" type="bike_bicycle" depart="189.29">
        <route edges="4144040#2 -4144040#2 -4144040#1 4195580#0 4195580#1 4195580#2 715835444#1 715835444#2 715835444#3 150041551#0 150041551#1 -4295817#3 -4295817#1 -4295817#0 700440129 1290085526#0"/>
    </vehicle>
    <vehicle id="bike40" type="bike_bicycle" depart="192.32">
        <route edges="700440130#1 700440128 4295817#0 -23508224 -715835444#5 -715835444#4 715835444#4"/>
    </vehicle>
    <vehicle id="bike41" type="bike_bicycle" depart="200.42">
        <route edges="150032770#5 150032770#6 103958941#0 -149518804#3 -149518804#2 4019053#2 -150032770#6 -150032770#5 -150032770#2 -150032770#1 -150032770#0 327864903#0 327864903#1 218848625#1 539841923#0 539841923#1 -23015831 4195610#0 4195610#2 484022097 -4144040#2 -4144040#1 4195580#0 4195580#1 4195580#2 715835444#1 23508141#1 70205228#0 70205228#1 70205228#2"/>
    </vehicle>
    <vehicle id="bike42" type="bike_bicycle" depart="205.12">
        <route edges="-150041551#3 150041551#2 56163443#1 700440137 700440134 214812788#2 73372559 -689912267#0"/>
    </vehicle>
    <vehicle id="bike43" type="bike_bicycle" depart="205.19">
        <route edges="-715835444#1 60263960 116556688 43135644#0 715913363#2 1290085525#0 1290085525#1 700440148 378479743#0 378479743#1 378479743#2 378479743#3 378479743#4 378479743#5 378479743#6 -1265069358#1 -1265069360#0 1265069359 1265069358#1 -378479743#6 -378479743#5 -378479743#4 -23248109#1 -23248109#0"/>
    </vehicle>
    <vehicle id="bike44" type="bike_bicycle" depart="205.57">
        <route edges="196656222#2 700440130#0 700440130#1 700440128 4295817#0 -23508224 -715835444#5 -715835444#4 -715835444#3 -715835444#2 -715835444#1 60263960 116556688 43135644#0 715913363#2 1290085525#0 1290085525#1 700440148 378479743#0 378479743#1 378479743#2 378479743#3 378479743#4 378479743#5 378479743#6 -1265069358#1 -1265069360#0 1265069359 1265069358#1 -378479743#6 -378479743#5 -378479743#4"/>
    </vehicle>
    <vehicle id="bike45" type="bike_bicycle" depart="207.11">
        <route edges="150041593 196656222#0 196656222#1 196656222#2 700440130#0 700440130#1 700440128"/>
    </vehicle>
    <vehicle id="bike47" type="bike_bicycle" depart="229.38">
        <route edges="-23508224 -715835444#5 -715835444#4 -715835444#3 -715835444#2 -715835444#1 60263960 116556688 43135644#0 214812788#2 73372559 -689912267#0 -624481020#4"/>
    </vehicle>
    <vehicle id="bike48" type="bike_bicycle" depart="237.07">
        <route edges="-53207957 150041579#0 150041579#2 150041578 150041580 149518769#1 150041593 196656222#0 196656222#1 196656222#2 700440130#0 700440130#1 700440128 4295817#0 -23508224 -715835444#5 -715835444#4 -715835444#3 -715835444#2 -715835444#1 -4195580#2 -4195580#1 -4195580#0 4144040#1 4144040#2 -484022097 -4195610#2 -4195610#0 23015831 -539841923#1 -539841923#0 -218848625#1 -327864903#1 -327864903#0 150032770#0 150032770#1"/>
    </vehicle>
    <vehicle id="bike50" type="bike_bicycle" depart="240.62">
        <route edges="378479743#6 700236092#0 700236092#1 700236093 44973978 984768175 1287285290#0 1287285290#1 1287285290#2 539841923#0 539841923#1 -23015831 4195610#0 4195610#2 484022097 -4144040#2 -4144040#1 4144040#1"/>
    </vehicle>
    <vehicle id="bike51" type="bike_bicycle" depart="241.37">
        <route edges="23508142#0 23508142#1 -23508142#1 -23508142#0 23508141#0 -715835444#1 60263960 116556688 43135644#0 715913363#2 1290085525#0 1290085525#1 700440148 378479743#0 378479743#1"/>
    </vehicle>
    <vehicle id="bike52" type="bike_bicycle" depart="246.62">
        <route edges="4144040#0 4195580#0"/>
    </vehicle>
    <vehicle id="bike53" type="bike_bicycle" depart="248.25">
        <route edges="-150032770#5 -150032770#2 -150032770#1 -150032770#0 327864903#0 327864903#1 218848625#1 539841923#0 539841923#1 -23015831 -75392301#1 -75392301#0 -378479743#1 -378479743#0 700440131 506015829#1 E0 E3 59591195#1 59591195#2 73372559 -689912267#0 -624481020#4 -624481020#3"/>
    </vehicle>
    <vehicle id="bike54" type="bike_bicycle" depart="248.53">
        <route edges="492925920#1 395456768 395456769#0 395456769#1 24509268 700440138 700440139 -378479743#6 -378479743#5 -378479743#4 -378479743#3 -378479743#2 -378479743#1 -378479743#0 700440131 506015829#1 E0 E2 116556686#1 -60263960 715835444#1"/>
    </vehicle>
    <vehicle id="bike57" type="bike_bicycle" depart="260.48">
        <route edges="-196656222#0 -53207957 150041579#0 150041579#2 150041578 150041580 149518769#1 150041593 196656222#0 196656222#1 196656222#2 700440130#0 700440130#1 700440128 4295817#0 -23508224 -715835444#5 -715835444#4 -715835444#3 -715835444#2 -715835444#1 60263960 116556688 43135644#0"/>
    </vehicle>
    <vehicle id="bike58" type="bike_bicycle" depart="262.74">
        <route edges="75392301#1 -75392301#1 -75392301#0 -378479743#1 -378479743#0 700440131 506015829#1 E0 E2 378479740#1 -700440136 -56163443#3 -150041594#1 -1290085526#1 -700440129 -700440128 -700440130#1 -700440130#0 -196656222#2"/>
    </vehicle>
    <vehicle id="bike59" type="bike_bicycle" depart="263.24">
        <route edges="23248109#0 23248109#1 378479743#4 378479743#5 378479743#6 700236092#0 700236092#1 700236093 44973978 506013711#1 149518804#2 149518804#3 103958941#2"/>
    </vehicle>
    <vehicle id="bike60" type="bike_bicycle" depart="267.41">
        <route edges="150041565 700440130#0 700440130#1 700440128 4295817#0 -23508224 -715835444#5 -715835444#4 -715835444#3 -715835444#2 -715835444#1 60263960 116556688 43135644#0 715913363#2 1290085525#0 1290085525#1 700440148 378479743#0 378479743#1 378479743#2 378479743#3 378479743#4 378479743#5 378479743#6 -1265069358#1 -1265069360#0 1265069359 1265069358#1 -378479743#6 -378479743#5 -378479743#4"/>
    </vehicle>
    <vehicle id="bike61" type="bike_bicycle" depart="271.33">
        <route edges="-715835444#1 -4195580#2 285156957 -285156957 4195580#2 715835444#1 23508141#1 70205228#0 70205228#1 70205228#2 -70205228#2 -70205228#1"/>
    </vehicle>
    <vehicle id="bike62" type="bike_bicycle" depart="276.83">
        <route edges="715835444#3 -715835444#3 -715835444#2 -715835444#1 60263960 116556688 43135644#0 715913363#2 1290085525#0 1290085525#1 700440148 378479743#0 378479743#1 378479743#2 378479743#3 378479743#4 378479743#5 378479743#6 700236092#0 700236092#1 700236093 44973978 506013711#1 35574708#1"/>
    </vehicle>
    <vehicle id="bike63" type="bike_bicycle" depart="278.45">
        <route edges="700440134 214812788#2 73372559 -689912267#0 -624481020#4 -28247401 28247401 624481020#4 689912267#0 214812786 715913363#2 1290085525#0 1290085525#1 700440148 378479743#0 378479743#1 378479743#2 378479743#3 378479743#4 378479743#5 378479743#6 -1265069358#1 -1265069360#0 1265069359 1265069358#1 -378479743#6 -378479743#5 -378479743#4"/>
    </vehicle>
    <vehicle id="bike64" type="bike_bicycle" depart="280.71">
        <route edges="492925919 -1265069360#0 1265069359 1265069358#1 -378479743#6 -378479743#5 -378479743#4 -378479743#3 -378479743#2 -378479743#1 -378479743#0 700440131 506015829#1 E0 E2 116556686#1 -60263960 715835444#1 715835444#2 -1153038902#4 -1153038902#2 -1153038902#0 29895520#3 -23101679#0 -150041551#0"/>
    </vehicle>
    <vehicle id="bike65" type="bike_bicycle" depart="280.77">
        <route edges="-196656222#2 -196656222#1 -196656222#0 -53207957 150041579#0 150041579#2 150041578 150041580 149518769#1 150041593 196656222#0 196656222#1 196656222#2 700440130#0 700440130#1 700440128 4295817#0 -23508224 -715835444#5 -715835444#4 -715835444#3 -715835444#2 -715835444#1 -4195580#2 -4195580#1 -4195580#0 4144040#1 4144040#2 -484022097 -4195610#2 -4195610#0 23015831 -539841923#1 -539841923#0 -218848625#1 -327864903#1 -327864903#0 150032770#0 150032770#1 150032770#2 150032770#5"/>
    </vehicle>
    <vehicle id="bike66" type="bike_bicycle" depart="284.18">
        <route edges="150032770#5 150032770#6 103958941#0 -149518804#3 -149518804#2 4019053#2 -150032770#6 -150032770#5 -150032770#2 -150032770#1 -150032770#0 327864903#0 327864903#1 218848625#1 539841923#0 539841923#1 -23015831 4195610#0 4195610#2 484022097 4144040#3 4144040#4 700440148 378479743#0"/>
    </vehicle>
    <vehicle id="bike67" type="bike_bicycle" depart="284.67">
        <route edges="150032770#1 150032770#2 -572523427 572523427 -150032770#2 -150032770#1 -150032770#0 327864903#0 327864903#1 218848625#1 539841923#0 539841923#1 -23015831 4195610#0 4195610#2 484022097 -4144040#2 -4144040#1 4195580#0 4195580#1 4195580#2 715835444#1 -715835444#1 -4195580#2"/>
    </vehicle>
    <vehicle id="bike68" type="bike_bicycle" depart="290.03">
        <route edges="214812786 116556686#1 -60263960 715835444#1 715835444#2 -1153038902#4 1153038902#4 -715835444#2"/>
    </vehicle>
    <vehicle id="bike69" type="bike_bicycle" depart="291.16">
        <route edges="-23508141#1 -715835444#1 -4195580#2 -4195580#1 -4195580#0 4144040#1 4144040#2"/>
    </vehicle>
    <vehicle id="bike70" type="bike_bicycle" depart="292.48">
        <route edges="378479743#1 75392301#0 285188051#0 -285188051#0 -75392301#0 -378479743#1 -378479743#0 700440131 506015829#1 E0 E3 59591195#1 59591195#2 73372559 -689912267#0 -624481020#4 -28247401 28247401 624481020#4 689912267#0 214812786"/>
    </vehicle>
    <vehicle id="bike71" type="bike_bicycle" depart="292.59">
        <route edges="-715835444#1 -4195580#2 285156957 -285156957 4195580#2 715835444#1 715835444#2 715835444#3 150041551#0 150041551#1 -4295817#3 -4295817#1 -4295817#0"/>
    </vehicle>
    <vehicle id="bike72" type="bike_bicycle" depart="297.54">
        <route edges="E2 116556686#1 -60263960 715835444#1 715835444#2 715835444#3 150041551#0 150041551#1 -150041551#1"/>
    </vehicle>
    <vehicle id="bike73" type="bike_bicycle" depart="298.61">
        <route edges="-4295817#0 4295817#0 -23508224 -715835444#5 750168166#0 -750168166#0 715835444#5"/>
    </vehicle>
    <vehicle id="bike75" type="bike_bicycle" depart="302.81">
        <route edges="-700440136 -56163443#3 182982119#0 881694399 -881694399 -182982119#1 -150041551#3 -150041551#1 23101679#0 -29895520#3 -29895520#2 -29895520#1 -29895520#0 715802321 -70205228#1 -70205228#0 -23508141#1"/>
    </vehicle>
    <vehicle id="bike76" type="bike_bicycle" depart="306.43">
        <route edges="196656222#0 196656222#1 196656222#2 700440130#0 700440130#1 700440128 4295817#0 -23508224 -715835444#5 -715835444#4 -715835444#3 -715835444#2 -715835444#1 -4195580#2 -4195580#1 -4195580#0 4144040#1 4144040#2 -484022097 -4195610#2 -4195610#0 23015831 -539841923#1 -539841923#0 -218848625#1 -327864903#1 -327864903#0 150032770#0 150032770#1"/>
    </vehicle>
    <vehicle id="bike77" type="bike_bicycle" depart="308.22">
        <route edges="-378479743#1 -378479743#0 700440131 506015829#1 E0 E2 116556686#1 -60263960 715835444#1 -715835444#1 60263960 116556688 43135644#0 214812788#2"/>
    </vehicle>
    <vehicle id="bike78" type="bike_bicycle" depart="322.99">
        <route edges="-56163443#3 -150041594#1 -1290085526#1 -700440129 4295817#0 -23508224 -715835444#5 -715835444#4 -715835444#3 -715835444#2 23508141#1"/>
    </vehicle>
    <vehicle id="bike79" type="bike_bicycle" depart="323.61">
        <route edges="4144040#2 -4144040#2 -4144040#1 4195580#0 4195580#1 4195580#2 715835444#1 715835444#2 715835444#3 715835444#4 750168166#0 -750168166#0 -715835444#4"/>
    </vehicle>
    <vehicle id="bike80" type="bike_bicycle" depart="326.97">
        <route edges="1290085526#0 150041594#0 -150041551#3 -150041551#1 -150041551#0 -715835444#3 -715835444#2 -715835444#1 60263960 116556688 43135644#0"/>
    </vehicle>
    <vehicle id="bike81" type="bike_bicycle" depart="329.94">
        <route edges="150041551#0 150041551#1"/>
    </vehicle>
    <vehicle id="bike82" type="bike_bicycle" depart="332.17">
        <route edges="-196656222#1 -196656222#0 -53207957 150041579#0 150041579#2 150041578 150041580 149518769#1 150041593 196656222#0 196656222#1 196656222#2 700440130#0 700440130#1 700440128 4295817#0 -23508224 -715835444#5 -715835444#4 -715835444#3 -715835444#2 -715835444#1 60263960 116556688 43135644#0 378479740#1 -700440136"/>
    </vehicle>
    <vehicle id="bike83" type="bike_bicycle" depart="335.48">
        <route edges="150032770#6 103958941#0 -149518804#3 -149518804#2 4019053#2 -150032770#6 -150032770#5 -150032770#2 -150032770#1 -150032770#0 327864903#0 327864903#1 218848625#1 539841923#0 539841923#1 -23015831 4195610#0 4195610#2 484022097 -4144040#2 -4144040#1 4195580#0 4195580#1 4195580#2 60263960 116556688 43135644#0 715913363#2 1290085525#0 1290085525#1"/>
    </vehicle>
    <vehicle id="bike84" type="bike_bicycle" depart="335.50">
        <route edges="395456769#0 395456769#1 24509268 700440138 700440139 -378479743#6 -378479743#5 -378479743#4 -378479743#3 -378479743#2 -378479743#1 -378479743#0 700440131 506015829#1 E0 E3 59591195#1 59591195#2 73372559 -689912267#0"/>
    </vehicle>
    <vehicle id="bike85" type="bike_bicycle" depart="347.58">
        <route edges="150032770#0 150032770#1 150032770#2 -572523427 572523427 -150032770#2 -150032770#1 -150032770#0 327864903#0 327864903#1 218848625#1 539841923#0 539841923#1 -23015831 -75392301#1 75392301#1"/>
    </vehicle>
    <vehicle id="bike86" type="bike_bicycle" depart="369.23">
        <route edges="-4144040#3 -4144040#2 -4144040#1 4195580#0 4195580#1 4195580#2 715835444#1 715835444#2 715835444#3 715835444#4 715835444#5"/>
    </vehicle>
    <vehicle id="bike87" type="bike_bicycle" depart="372.15">
        <route edges="150041578 150041580 149518769#1 150041593 196656222#0 196656222#1 196656222#2 700440130#0 700440130#1 700440128 4295817#0 -23508224 -715835444#5 -715835444#4 -715835444#3 -715835444#2 -715835444#1 -4195580#2 -4195580#1 -4195580#0 4144040#1 4144040#2 4144040#3 4144040#4"/>
    </vehicle>
    <vehicle id="bike88" type="bike_bicycle" depart="375.72">
        <route edges="116556688 43135644#0 715913363#2 1290085525#0 1290085525#1 700440148 378479743#0 378479743#1 75392301#0 75392301#1 23015831 -539841923#1 -539841923#0 -218848625#1 -327864903#1 -327864903#0 150032770#0 150032770#1 150032770#2"/>
    </vehicle>
    <vehicle id="bike89" type="bike_bicycle" depart="378.06">
        <route edges="-23508141#0 23508142#0 23508142#1 -23508142#1 -23508142#0 23508141#0 -715835444#1 -4195580#2 -4195580#1 -4195580#0 4144040#1 4144040#2 -484022097 -4195610#2 -4195610#0 23015831 -539841923#1 -539841923#0 -218848625#1 -327864903#1 -327864903#0 150032770#0 150032770#1 150032770#2"/>
    </vehicle>
    <vehicle id="bike90" type="bike_bicycle" depart="379.20">
        <route edges="149518769#1 150041593 196656222#0 196656222#1 196656222#2 700440130#0 700440130#1 700440128 4295817#0 4295817#1 4295817#3 150041551#2 182982119#0 881694399 -881694399 -182982119#1"/>
    </vehicle>
    <vehicle id="bike91" type="bike_bicycle" depart="383.77">
        <route edges="700440130#1 700440128 4295817#0 -23508224 -715835444#5 -715835444#4 -715835444#3 -715835444#2 -715835444#1 60263960 116556688 43135644#0 715913363#2 1290085525#0 1290085525#1 700440148 378479743#0 378479743#1 378479743#2 378479743#3 378479743#4 378479743#5 378479743#6 -1265069358#1 -1265069360#0 1265069359 254075881#1 449551311"/>
    </vehicle>
    <vehicle id="bike92" type="bike_bicycle" depart="396.97">
        <route edges="-484022097 -4195610#2 -4195610#0 -75392301#1 -75392301#0 -378479743#1 -378479743#0 700440131 506015829#1"/>
    </vehicle>
    <vehicle id="bike93" type="bike_bicycle" depart="397.50">
        <route edges="-196656222#1 -196656222#0 -53207957 150041579#0 150041579#2 150041578 150041580 149518769#1 150041593 196656222#0 196656222#1 196656222#2 700440130#0 700440130#1 700440128 4295817#0 -23508224 -715835444#5 -715835444#4 -715835444#3 -715835444#2 -715835444#1 60263960 116556688 43135644#0 715913363#2 1290085525#0 1290085525#1 700440148 378479743#0 378479743#1 378479743#2 378479743#3 378479743#4 378479743#5"/>
    </vehicle>
    <vehicle id="bike94" type="bike_bicycle" depart="397.66">
        <route edges="23248109#0 23248109#1 -378479743#3 -378479743#2 -378479743#1 -378479743#0 700440131 506015829#1 E0 E3 59591195#1 59591195#2 73372559 -689912267#0 -624481020#4 -28247401 28247401 624481020#4 689912267#0 214812786 715913363#2 1290085525#0 1290085525#1 -4144040#4"/>
    </vehicle>
    <vehicle id="bike95" type="bike_bicycle" depart="406.06">
        <route edges="506015829#1 E0 E2 116556686#1 -60263960 715835444#1 715835444#2 715835444#3 -715835444#3"/>
    </vehicle>
    <vehicle id="bike97" type="bike_bicycle" depart="411.07">
        <route edges="-378479743#4 -23248109#1 -23248109#0"/>
    </vehicle>
    <vehicle id="bike98" type="bike_bicycle" depart="411.92">
        <route edges="-689912267#0 -624481020#4 -28247401 28247401 624481020#4 689912267#0 214812786 715913363#2 1290085525#0 1290085525#1 -4144040#4 -4144040#3 -4144040#2 -4144040#1 -4144040#0"/>
    </vehicle>
    <vehicle id="bike99" type="bike_bicycle" depart="413.20">
        <route edges="-378479743#5 -378479743#4 -23248109#1 23248109#1 378479743#4 378479743#5 378479743#6 700236092#0 700236092#1 700236093 44973978 984768175 1287285290#0 1287285290#1 1287285290#2 539841923#0 539841923#1 -23015831 4195610#0 4195610#2 484022097"/>
    </vehicle>
    <vehicle id="bike100" type="bike_bicycle" depart="420.99">
        <route edges="-196656222#1 -196656222#0 -53207957 150041579#0 150041579#2 150041578 150041580 149518769#1 150041593 196656222#0 196656222#1 196656222#2 700440130#0 700440130#1 700440128 4295817#0 -23508224 -715835444#5 -715835444#4 -715835444#3 -715835444#2 -715835444#1 60263960 116556688 43135644#0 715913363#2"/>
    </vehicle>
    <vehicle id="bike102" type="bike_bicycle" depart="428.12">
        <route edges="24509268 700440138 700440139 -378479743#6 -378479743#5 -378479743#4 -378479743#3 -378479743#2 -378479743#1 -378479743#0 700440131 506015829#1 E0 E2 116556686#1 -60263960 715835444#1 715835444#2 715835444#3 715835444#4 715835444#5 23508224"/>
    </vehicle>
    <vehicle id="bike103" type="bike_bicycle" depart="432.32">