<?xml version="1.0" encoding="UTF-8"?>

<!-- generated on 2024-10-31 12:35:38.656503 by randomTrips.py UNKNOWN
<configuration>
    <net-file value="/opt/homebrew/opt/sumo/share/sumo/tools/2024-10-08-17-29-51/241031/241031_A131.net.xml"/>
    <route-file value="241031_random_route_pedestrian.rou.xml"/>
    <pedestrians value="True"/>
    <prefix value="pedestrian"/>
    <verbose value="True"/>
    <insertion-density value="70.0"/>
    <random-depart value="True"/>
</configuration>
-->

<!-- generated on 2024-10-31 12:35:38 by Eclipse SUMO duarouter Version 1.20.0
<configuration xmlns:xsi="http://www.w3.org/2001/XMLSchema-instance" xsi:noNamespaceSchemaLocation="http://sumo.dlr.de/xsd/duarouterConfiguration.xsd">

    <input>
        <net-file value="/opt/homebrew/opt/sumo/share/sumo/tools/2024-10-08-17-29-51/241031/241031_A131.net.xml"/>
        <route-files value="trips.trips.xml"/>
    </input>

    <output>
        <output-file value="241031_random_route_pedestrian.rou.xml"/>
        <alternatives-output value="NUL"/>
    </output>

    <time>
        <begin value="0.0"/>
        <end value="3600.0"/>
    </time>

    <report>
        <verbose value="true"/>
        <ignore-errors value="true"/>
        <no-step-log value="true"/>
    </report>

</configuration>
-->

<routes xmlns:xsi="http://www.w3.org/2001/XMLSchema-instance" xsi:noNamespaceSchemaLocation="http://sumo.dlr.de/xsd/routes_file.xsd">
    <person id="pedestrian0" depart="1.08">
        <walk edges="365216933 378479743#4 378479743#3 378479743#2 378479743#1 378479743#0"/>
    </person>
    <person id="pedestrian2" depart="6.08">
        <walk edges="-23599727#0 253230759#0 -378479743#0 -378479743#1 378479743#2 378479743#3 378479743#4 378479743#5 378479743#6 700236092#0 700236092#1 439271817#2 -E1"/>
    </person>
    <person id="pedestrian3" depart="10.28">
        <walk edges="24509268 700440138 700440139 -378479743#6 -378479743#5 -378479743#4 378479743#3 378479743#2 378479743#1 378479743#0 700440148 255729754#2 255729754#1 255729754#0 150041716#4 150041716#3 -29895519#1 -29895519#2 -715802321"/>
    </person>
    <person id="pedestrian4" depart="11.83">
        <walk edges="150032863#1 -539841923#0"/>
    </person>
    <person id="pedestrian5" depart="14.79">
        <walk edges="-465884704 -23599727#1 -23599727#0 253230759#1 -1244524929 465884703#2 255729754#1 255729754#0 150041716#4 150041716#3 -150041716#2"/>
    </person>
    <person id="pedestrian6" depart="21.24">
        <walk edges="-624481020#1 -334960656 334960660 -23599727#1 -23599727#0 253230759#1 -1244524929 465884703#2 255729754#1 255729754#0 150041716#4 150041716#3 -150041716#2 150041716#1 150041594#0 -150041624#0 -526519487 115485620#1"/>
    </person>
    <person id="pedestrian7" depart="29.32">
        <walk edges="257510648 257510647#1 E1.13 700440138 700440139 -378479743#6 -378479743#5 -378479743#4 -378479743#3 -378479743#2 -378479743#1 -378479743#0 253230759#0 -23599727#0 -23599727#1 -465884704"/>
    </person>
    <person id="pedestrian9" depart="33.55">
        <walk edges="-715835444#5 -715835444#4 -715835444#3 -715835444#2 -715835444#1 -4195580#2 -4195580#1 -4195580#0 -4144040#1 -4144040#2 484022097 4195610#2 -13858853 -47492539 13858854 -24507771 -1287285290#3 -218848625#1 -327864903#1 -327864903#0 -150032770#0 -150032770#1 -150032770#2 -150032770#5 -150032770#6 255729814#1 255729814#0"/>
    </person>
    <person id="pedestrian10" depart="41.03">
        <walk edges="-700440129 1290085526#0 150041594#0 -150041551#3 150041551#1 -23101679#0 -29895520#3 -1153038902#0 1153038902#2 1153038902#4 715835444#2 715835444#1 4195580#2 4195580#1 4195580#0 4144040#0"/>
    </person>
    <person id="pedestrian11" depart="50.97">
        <walk edges="150041636#1 -150041636#0 -378491236 150041716#4 150041716#3"/>
    </person>
    <person id="pedestrian12" depart="56.68">
        <walk edges="150041636#1 -150041636#2 -150041594#1 -150041624#0 -150041624#1 150041624#2 -150041624#3 43206316 -69990712 -69990704"/>
    </person>
    <person id="pedestrian13" depart="57.95">
        <walk edges="-1185258340#0 1153038902#2 1153038902#4 715835444#3 715835444#4 750168166#0"/>
    </person>
    <person id="pedestrian14" depart="60.05">
        <walk edges="150041689 43206316 -150041624#3 150041624#2 -150041624#1 -150041624#0 150041594#0 150041716#1 886547966 886404164#1 886404164#0"/>
    </person>
    <person id="pedestrian15" depart="60.10">
        <walk edges="-4144040#0 4195580#0 4195580#1 4195580#2 -715910744#1 715910744#0 150041716#4 150041716#3 -29895519#1 -886547965#0"/>
    </person>
    <person id="pedestrian16" depart="70.60">
        <walk edges="-149518804#2 -149518804#0 -984768176#1 -150032873 700236092#1 700236092#0 378479743#6 378479743#5 378479743#4 378479743#3 378479743#2 378479743#1 378479743#0 700440148 255729754#2 255729754#1 255729754#0 150041716#4 150041716#3 -150041716#2 150041716#1 150041594#0 -150041624#0 -150041624#1 150041624#2 150041624#3"/>
    </person>
    <person id="pedestrian17" depart="76.07">
        <walk edges="624481020#2 -334960656 334960660 -23599727#1 -23599727#0 253230759#1 -1244524929 465884703#2 255729754#1 255729754#0 150041716#4 150041716#3 -150041716#2 150041716#1 150041594#0 1290085526#0 700440129 700440128 700440130#1 286497563"/>
    </person>
    <person id="pedestrian18" depart="77.54">
        <walk edges="150032863#3 150032863#2 149518802#0 149518802#1 150032842 528567529 -378479743#6 700440139 700440138 E1.13 257510647#1 -257510647#0 -559675981 256102746#0 256105105#9 -256102748 286646440 56447699#1 22938316#1"/>
    </person>
    <person id="pedestrian19" depart="79.79">
        <walk edges="539841923#1 -539841923#0 -218848625#1 -218848625#0 13858859"/>
    </person>
    <person id="pedestrian20" depart="79.92">
        <walk edges="624481020#2 -334960656 334960660 -23599727#1 -23599727#0 253230759#0 -378479743#0 -378479743#1 378479743#2 378479743#3 378479743#4 378479743#5 378479743#6 700236092#0 365217759"/>
    </person>
    <person id="pedestrian21" depart="83.02">
        <walk edges="4144040#1 4144040#2 4144040#3 4144040#4 700440148 378479743#0 378479743#1 378479743#2 378479743#3 -23248109#1 -23248109#0 -23248118 689756683 -987109589#1 -987109590"/>
    </person>
    <person id="pedestrian22" depart="84.64">
        <walk edges="1185258340#0 -29895520#1 29895520#0 -29895519#2 -29895519#1 150041716#3 150041716#4 255729754#0 255729754#1"/>
    </person>
    <person id="pedestrian23" depart="86.84">
        <walk edges="-365216932 378479743#4 378479743#3 378479743#2 378479743#1 378479743#0 700440148 255729754#2 255729754#1 255729754#0 148061769 715835444#1 -23508141#0 23508142#0"/>
    </person>
    <person id="pedestrian24" depart="87.01">
        <walk edges="-150041624#0 150041594#0 150041716#1 -150041716#2 150041716#3 150041716#4 255729754#0 255729754#1 255729754#2 700440148 378479743#0 378479743#1 378479743#2 378479743#3 -23248109#1 150041682"/>
    </person>
    <person id="pedestrian26" depart="102.36">
        <walk edges="987109590 -987109589#1 689756683 -23248118 -23248109#0 -23248109#1 -378479743#4 -378479743#5 378479743#6 700236092#0 700236092#1 -150032873 -984768176#1 255729814#0 255729814#1 -150032770#6 218649572 319910922"/>
    </person>
    <person id="pedestrian27" depart="105.12">
        <walk edges="-23401995#2 -23401995#1 -149518804#3 -149518804#2 -149518804#0 -984768176#1 -150032873 700236092#1 700236092#0 378479743#6 378479743#5 378479743#4 378479743#3 378479743#2 378479743#1 378479743#0 700440148 255729754#2 255729754#1 255729754#0 150041716#4 150041716#3 -150041716#2 886547966"/>
    </person>
    <person id="pedestrian28" depart="105.23">
        <walk edges="1185258336#4 -1185258336#3 -1185258339 29895520#0 -29895519#2 -29895519#1 150041716#3 150041716#4 -378491236 4305021#0 4305021#1"/>
    </person>
    <person id="pedestrian29" depart="111.69">
        <walk edges="-750168165 4295817#3 -150041551#1 -23101679#0 -29895520#3 -1153038902#0 1153038902#2 1153038902#4 715835444#2 715835444#1 715910744#1"/>
    </person>
    <person id="pedestrian30" depart="115.43">
        <walk edges="395456768 395456769#0 395456769#1 378479753 -23248109#1 -378479743#3 -378479743#2 -378479743#1 -378479743#0"/>
    </person>
    <person id="pedestrian31" depart="117.24">
        <walk edges="150041699#2 150041624#2 -150041624#1 -150041624#0 -150041594#1 150041636#2"/>
    </person>
    <person id="pedestrian32" depart="125.62">
        <walk edges="-148061776#0 -28230108 -150041636#0 -378491236 E4 255729797#1 1244524930 253230759#1 253230759#0 -378479743#0 -378479743#1 -378479743#2 -378479743#3 -378479743#4 -378479743#5 -378479743#6 700440139 700440138 E1.13 -256102751#0"/>
    </person>
    <person id="pedestrian34" depart="127.63">
        <walk edges="150032812#0 -150032873 700236092#1 700236092#0 378479743#6 -378479743#6 700440139 700440138 E1.13 257510647#1 56028463#1 256105105#6"/>
    </person>
    <person id="pedestrian35" depart="127.91">
        <walk edges="150041716#4 150041716#3 -29895519#1 -29895519#2 29895520#0 -1185258339 1185258336#2 -1185258336#0 1153038902#4 715835444#3 -715835444#4 -715835444#5"/>
    </person>
    <person id="pedestrian38" depart="147.55">
        <walk edges="-640167405 -4195580#1 -4195580#2 -715835444#1 -715835444#2 -715835444#3 715835444#4 -750168166#0 750168164 -750168164"/>
    </person>
    <person id="pedestrian40" depart="151.68">
        <walk edges="35098345 -378479743#0 700440148 4144040#4 4144040#3 -4144040#2 -4144040#1 -4195580#0 -640167405"/>
    </person>
    <person id="pedestrian42" depart="154.95">
        <walk edges="319910910#1 319910910#0 150032863#4 -1287285290#0 984768175"/>
    </person>
    <person id="pedestrian43" depart="156.74">
        <walk edges="256102746#0 256102746#1 256102750#1 256102749 4213557 4213561#0 4213561#1 638694840#0 -638694840#1 689756683 -23248118 -23248109#0 -23248109#1 378479743#3 378479743#2 378479743#1 378479743#0 700440148 255729754#2 255729754#1 255729754#0 150041716#4 150041716#3 -150041716#2 150041716#1 150041594#0 -150041624#0 -150041624#1 150041624#2 -150041624#3 43206316"/>
    </person>
    <person id="pedestrian44" depart="156.96">
        <walk edges="365217758 365217759 700236092#1 -150032873 -984768176#1 -149518804#0 -149518804#2 -149518804#3 -23401995#1 319910933#0"/>
    </person>
    <person id="pedestrian45" depart="162.04">
        <walk edges="-1185258343 1153038902#4 -715835444#2 -23508141#0 23508142#0 150032877"/>
    </person>
    <person id="pedestrian46" depart="163.06">
        <walk edges="886404164#0 -886547965#1 -29895519#1 150041716#3 150041716#4 255729754#0 255729754#1 255729754#2 700440148 378479743#0 378479743#1 378479743#2 378479743#3 -23248109#1 -23248109#0 -23248118 689756683 -638694840#1 638694840#0 4213561#1 4213561#0 4213557"/>
    </person>
    <person id="pedestrian47" depart="163.34">
        <walk edges="4195580#2 4195580#1 4195580#0 -4144040#1 -4144040#2 484022097 4195610#2 -13858853 -47492539 13858854 -24507771 -1287285290#3 -218848625#1 -327864903#1 -327864903#0 -150032770#0 -150032770#1 -150032770#2 -150032770#5 -150032770#6 255729814#1 255729814#0"/>
    </person>
    <person id="pedestrian48" depart="164.15">
        <walk edges="365216936#0 539841922 150032863#0 150032863#1 149518802#0 149518802#1 150032842 528567529 -378479743#6 700440139 700440138 E1.13 257510647#1 -257510647#0 -559675981 256102746#0"/>
    </person>
    <person id="pedestrian49" depart="164.24">
        <walk edges="-29895517 150041716#4 E4 255729797#1 689912266 -624481020#4 -28247401 28247397#1"/>
    </person>
    <person id="pedestrian51" depart="171.96">
        <walk edges="-28247399 -28247400#0 -4209642 253230759#1 253230759#0 -378479743#0 -378479743#1 378479743#2 378479743#3 378479743#4 378479743#5 378479743#6 700236092#0 700236092#1 -150032873 -984768176#1 255729814#0 255729814#1 -150032770#6 218649572 319910922"/>
    </person>
    <person id="pedestrian52" depart="173.50">
        <walk edges="-1287285290#0 -1287285290#1 1287285290#2 -1287285290#3 -24507771 13858854 -47492539 -13858853 4195610#2 484022097 -4144040#2 -4144040#1 4195580#0 4195580#1 4195580#2 715835444#1 715835444#2 715835444#3 715835444#4 -750168166#0 750168166#1"/>
    </person>
    <person id="pedestrian53" depart="173.80">
        <walk edges="-23101679#1 23101679#1 -29895520#3 -1153038902#0 -1185258338#0 -1185258337"/>
    </person>
    <person id="pedestrian54" depart="178.05">
        <walk edges="-700440129 1290085526#0 150041594#0 150041716#1 -150041716#2 150041716#3 150041716#4 255729754#0 255729754#1 465884703#2 -1244524929 1244524929 4209642 -28247400#0 -28247400#1"/>
    </person>
    <person id="pedestrian55" depart="178.44">
        <walk edges="319910933#1 -26730977#2 -149518804#3 -149518804#2 -149518804#0 -984768176#1 -1287285290#0 -1287285290#1 1287285289"/>
    </person>
    <person id="pedestrian56" depart="181.68">
        <walk edges="4195580#2 4195580#1 4195580#0 -4144040#1 -4144040#2 4144040#3 4144040#4 700440148 378479743#0 378479743#1 378479743#2 378479743#3 -378479743#4 -378479743#5 -378479743#6 700440139 700440138"/>
    </person>
    <person id="pedestrian57" depart="185.64">
        <walk edges="56447699#1 286646440 -256102748 256102750#0 256102750#1 256102749 4213557 4213561#0 4213561#1 638694840#0 -638694840#1 689756683 -23248118 -23248109#0 -23248109#1 378479743#3 378479743#2 378479743#1"/>
    </person>
    <person id="pedestrian58" depart="186.38">
        <walk edges="-150032873 700236092#1 700236092#0 378479743#6 -378479743#6 700440139 700440138 E1.13 -256102751#0"/>
    </person>
    <person id="pedestrian59" depart="186.98">
        <walk edges="-378479743#4 378479743#3 378479743#2 378479743#1 378479743#0 700440148 255729754#2 255729754#1 255729754#0 148061769 715835444#1 -715835444#2 -715835444#3 -715835444#4"/>
    </person>
    <person id="pedestrian60" depart="188.88">
        <walk edges="29895519#2 -29895519#1 -150041716#2 150041716#1 150041594#0 1290085526#0 700440129 700440128 700440130#1 700440130#0 196656222#2"/>
    </person>
    <person id="pedestrian61" depart="189.64">
        <walk edges="-700440129 1290085526#0 150041594#0 150041716#1 -150041716#2 -29895519#1 -29895519#2"/>
    </person>
    <person id="pedestrian62" depart="192.21">
        <walk edges="700236092#1 700236092#0 378479743#6 378479743#5 378479743#4 378479743#3 378479743#2 378479743#1 378479743#0 700440148 255729754#2 255729754#1 255729754#0 148061769 715835444#1 715835444#2 715835444#3 715835444#4 -750168166#0 -750168166#1"/>
    </person>
    <person id="pedestrian63" depart="195.71">
        <walk edges="-886547965#1 -29895519#1 150041716#3 150041716#4 715910744#0 -715910744#1 4195580#2 4195580#1 4195580#0"/>
    </person>
    <person id="pedestrian64" depart="200.66">
        <walk edges="365216934 378479743#2 378479743#1 378479743#0 700440148 4144040#4 4144040#3 -4144040#2 -4144040#1 4195580#0 4195580#1 285156957"/>
    </person>
    <person id="pedestrian65" depart="205.13">
        <walk edges="319911562 319910923#0 319910922 218649572 -150032770#6 255729814#1 255729814#0 -984768176#1 -150032873 700236092#1 700236092#0 378479743#6 -378479743#6 700440139 700440138 E1.13 257510647#1 -257510647#0 -559675981 256105105#8"/>
    </person>
    <person id="pedestrian66" depart="205.38">
        <walk edges="-35771743#1 150041661 -150041636#1 -150041636#0 -378491236 E4 255729797#1 1244524930 -4209642 -28247400#0 -28247400#1 -459339931"/>
    </person>
    <person id="pedestrian67" depart="206.00">
        <walk edges="23599727#0 253230759#1 -1244524929 465884703#2 255729754#2 -4144040#4 -4144040#3 -4144040#2 -4144040#1 -4195580#0"/>
    </person>
    <person id="pedestrian68" depart="207.22">
        <walk edges="886547965#1 -29895519#1 150041716#3 150041716#4 255729754#0 255729754#1 255729754#2 700440148 378479743#0 378479743#1 378479743#2 378479743#3 -23248109#1 -23248109#0 -23248118 689756683 -638694840#1"/>
    </person>
    <person id="pedestrian69" depart="210.23">
        <walk edges="-624481020#0 -624481020#1 -334960656 334960660 -23599727#1 -23599727#0 253230759#0 -378479743#0 -378479743#1 -378479743#2 -378479743#3 -378479743#4"/>
    </person>
    <person id="pedestrian70" depart="210.57">
        <walk edges="327864908 327864907 218848626#1 -327864903#1 -218848625#1 -1287285290#3 -24507771 13858854 -47492539 -13858853 4195610#2 484022097 -4144040#2 -4144040#1 4195580#0 4195580#1 4195580#2 715835444#1 715835444#2 1153038902#4 1153038902#2 -1153038902#0 -29895520#3 -23101679#0 150041551#1 -4295817#3 -4295817#1 -4295817#0 -700440128 -700440130#1"/>
    </person>
    <person id="pedestrian71" depart="213.83">
        <walk edges="-797259708#1 150032770#6 150032770#5 150032770#2 150032770#1 150032770#0 -327864903#0 -327864903#1 -218848625#1 -1287285290#3 -24507771 13858854 -47492539 -13858853 4195610#2 484022097 -4144040#2 -4144040#1 4195580#0 4195580#1 4195580#2 715835444#1 715835444#2 715835444#3 715835444#4"/>
    </person>
    <person id="pedestrian72" depart="214.28">
        <walk edges="4305021#1 4305021#0 -378491236 E4 255729797#1 1244524930 253230759#1 253230759#0 -378479743#0 -378479743#1 -378479743#2 -378479743#3 -23248109#1 -23248109#0 -23248118 689756683 -638694840#1 638694840#0 4213561#1 366601855 366601856 256102750#3 -56015406#0"/>
    </person>
    <person id="pedestrian73" depart="215.00">
        <walk edges="-23508141#0 -715835444#1 -4195580#2 -4195580#1 -4195580#0 -4144040#1 -4144040#2 484022097 4195610#2 -13858853 -47492539 13858854 -24507771 -1287285290#3 1287285290#2 1287285289 150032863#3 319910910#0 319910910#1 319910912"/>
    </person>
    <person id="pedestrian74" depart="224.43">
        <walk edges="1153038902#4 -1185258336#0 1185258336#2 -1185258339 29895520#0 -29895519#2 -29895519#1 150041716#3 150041716#4 255729754#0 255729754#1 255729754#2 700440148 378479743#0 378479743#1 378479743#2 378479743#3 378479743#4 378479743#5 378479743#6 700236092#0 700236092#1 -150032873 984768175"/>
    </person>
    <person id="pedestrian75" depart="229.80">
        <walk edges="465884703#2 255729754#2 700440148 378479743#0 378479743#1 378479743#2 378479743#3 378479743#4 378479743#5 378479743#6 700236092#0 700236092#1 -150032873 -984768176#1 -149518804#0 -149518804#2 -149518804#3 797259708#1"/>
    </person>
    <person id="pedestrian76" depart="237.68">
        <walk edges="439271817#2 700236092#1 700236092#0 378479743#6 378479743#5 378479743#4 378479743#3 378479743#2 -378479743#1 -378479743#0 253230759#0 -23599727#0 -23599727#1 334960660 -334960656 -624481020#1"/>
    </person>
    <person id="pedestrian77" depart="239.42">
        <walk edges="-585579893 -4144040#4 255729754#2 255729754#1 255729754#0 150041716#4 150041716#3 -150041716#2 150041716#1 150041594#0 1290085526#0 700440129 -700440128 -700440130#1 -700440130#0 150041699#1 -150041645#0 359458217#2"/>
    </person>
    <person id="pedestrian78" depart="240.42">
        <walk edges="-77706449 150032770#5 -150032770#6 255729814#1 255729814#0 -984768176#1 -1287285290#0 150032863#4 150032863#3 150032863#2 149518802#0 149518802#1"/>
    </person>
    <person id="pedestrian80" depart="245.98">
        <walk edges="-378479743#1 -378479743#0 700440148 255729754#2 255729754#1 255729754#0 150041716#4 150041716#3 -150041716#2 150041716#1 150041551#2 150041551#1 23101679#0"/>
    </person>
    <person id="pedestrian81" depart="246.63">
        <walk edges="715835444#4 715835444#3 715835444#2 715835444#1 4195580#2 4195580#1 4195580#0 -4144040#1 -4144040#2 484022097 4195610#2 -13858853 -47492539 13858854 -24507771 -1287285290#3 -218848625#1 -327864903#1 -327864903#0 150032770#0 150032770#1 150032770#2 327864898"/>
    </person>
    <person id="pedestrian82" depart="248.17">
        <walk edges="-256102751#0 257510648"/>
    </person>
    <person id="pedestrian83" depart="248.62">
        <walk edges="256102748 256102750#0 256102750#1 256102749 4213557 4213561#0 4213561#1 638694840#0 -638694840#1 689756683 -23248118 -23248109#0 -23248109#1 378479743#3 378479743#2 378479743#1 378479743#0 700440148 255729754#2 255729754#1 255729754#0 150041716#4 150041716#3 -150041716#2 150041716#1 150041594#0 -150041624#0 -150041624#1 150041624#2 -150041624#3 43206316 -69990712 43206409 -43206409"/>
    </person>
    <person id="pedestrian84" depart="249.30">
        <walk edges="30147052 150041682 -23248109#1 -378479743#4 365216933 149518793 149518802#0 150032863#1 -539841923#0 -218848625#1 -218848625#0 218848626#0"/>
    </person>
    <person id="pedestrian85" depart="253.16">
        <walk edges="28247401 -28247397#1 28247397#0 -4209642 253230759#1 253230759#0 -378479743#0 -378479743#1 378479743#2 378479743#3 378479743#4 378479743#5 378479743#6 700236092#0 700236092#1 -150032873 -984768176#1 -149518804#0 -149518804#2 -149518804#3"/>
    </person>
    <person id="pedestrian86" depart="258.11">
        <walk edges="1287285290#0 150032863#4 150032863#3 150032863#2 149518802#0 365216929"/>
    </person>
    <person id="pedestrian87" depart="258.88">
        <walk edges="-182982119#1 150041716#1 -150041716#2 150041716#3 150041716#4 255729754#0 255729754#1 255729754#2 4144040#4"/>
    </person>
    <person id="pedestrian88" depart="260.30">
        <walk edges="-1153038902#4 -715835444#2 23508141#0"/>
    </person>
    <person id="pedestrian89" depart="262.75">
        <walk edges="715835444#2 715835444#1 148061769 255729754#0 255729754#1 465884703#2 -1244524929 1244524929"/>
    </person>
    <person id="pedestrian90" depart="263.51">
        <walk edges="715835444#5 715835444#4 715835444#3 715835444#2 715835444#1 148061769 255729754#0 255729754#1 465884703#2 -1244524929 253230759#1 -23599727#0 -23599727#1 334960660 -334960656 -624481020#1 -624481020#0 624481020#0"/>
    </person>
    <person id="pedestrian91" depart="265.71">
        <walk edges="150041551#0 715835444#3 715835444#2 715835444#1 148061769 255729754#0 255729754#1 255729754#2 700440148 -378479743#0"/>
    </person>
    <person id="pedestrian92" depart="267.64">
        <walk edges="881694398 -182982119#1 -150041551#3 150041551#1 -23101679#0 -29895520#3 -1153038902#0 1153038902#2 1153038902#4 -715835444#2 -715835444#1"/>
    </person>
    <person id="pedestrian93" depart="269.02">
        <walk edges="285188050 -4144040#1 4195580#0 4195580#1 4195580#2 715835444#1 715835444#2 1153038902#4 1153038902#2 -1153038902#0 -29895520#3 -23101679#0 150041551#1 -4295817#3 -4295817#1 -4295817#0 881694397 150041624#2 -150041624#3 43206316 69990712"/>
    </person>
    <person id="pedestrian94" depart="269.79">
        <walk edges="-150041689 43206316 -150041624#3 150041624#2 -150041624#1 -150041624#0 -150041594#1 -150041636#2 -150041636#1 -150041636#0 -378491236 E4 255729797#1"/>
    </person>
    <person id="pedestrian95" depart="269.83">
        <walk edges="22938316#0 56447699#1 286646440 -256102748 256105105#9 256102746#0 -559675981 -257510647#0 257510647#1 E1.13 700440138 700440139 -378479743#6 528567529 150032842 149518802#1 149518802#0 150032863#1 150032863#0 539841922 365216936#0 365216936#1"/>
    </person>
    <person id="pedestrian96" depart="271.97">
        <walk edges="715910744#0 150041716#4 150041716#3 -150041716#2 150041716#1 150041594#0 1290085526#0 700440129 700440128"/>
    </person>
    <person id="pedestrian97" depart="274.62">
        <walk edges="-29895520#0 -29895519#2 -29895519#1 150041716#3 150041716#4 255729754#0 255729754#1 465884703#2 -1244524929 253230759#1 -23599727#0 -23599727#1 334960660 -334960656 624481020#2"/>
    </person>
    <person id="pedestrian98" depart="276.68">
        <walk edges="-29895520#0 -29895520#1 -29895520#2 -29895520#3 -23101679#0 -150041551#1 4295817#3 4295817#1 4295817#0 700440128 700440130#1"/>
    </person>
    <person id="pedestrian100" depart="277.94">
        <walk edges="150041624#3 150041624#2 -150041624#1 -150041624#0 150041594#0 150041716#1 -150041716#2 150041716#3 150041716#4 715910744#0"/>
    </person>
    <person id="pedestrian101" depart="278.00">
        <walk edges="881694397 -150041624#1 -150041624#0 150041594#0 150041716#1 -150041716#2 -29895519#1 -29895519#2 715802321"/>
    </person>
    <person id="pedestrian102" depart="280.24">
        <walk edges="585579893 -4144040#4 255729754#2 255729754#1 255729754#0 150041716#4 150041716#3 -150041716#2 150041716#1 150041594#0 1290085526#0 700440129 -700440128 -700440130#1 -700440130#0 150041699#1 -1160713521"/>
    </person>
    <person id="pedestrian103" depart="280.77">
        <walk edges="253230759#1 -1244524929 465884703#2 255729754#1 255729754#0 150041716#4 150041716#3 -29895519#1 -29895519#2 29895520#0 -29895520#1 -29895520#2 -29895520#3 -23101679#0"/>
    </person>
    <person id="pedestrian104" depart="284.06">
        <walk edges="984768176#2 255729814#0 255729814#1 -150032770#6 150032770#5 -572523427"/>
    </person>
    <person id="pedestrian105" depart="284.06">
        <walk edges="987109590 -987109589#1 689756683 23248118"/>
    </person>
    <person id="pedestrian106" depart="285.13">
        <walk edges="150041624#3 150041624#2 881694397 -4295817#0 -4295817#1 -4295817#3 150041551#1 -23101679#0 -29895520#3 -1153038902#0 1153038902#2 1153038902#4 715835444#2 715835444#1 715910744#1"/>
    </person>
    <person id="pedestrian107" depart="290.55">
        <walk edges="56015406#1 56028463#1 257510647#1 E1.13 700440138 700440139 -378479743#6 528567529 150032842 149518802#1 149518802#0 150032863#2"/>
    </person>
    <person id="pedestrian108" depart="291.88">
        <walk edges="-35771743#1 150041661 -150041636#1 -150041636#0 -378491236 E4 255729797#1 1244524930 253230759#1 253230759#0 -378479743#0 -378479743#1 -378479743#2 -378479743#3 -23248109#1"/>
    </person>
    <person id="pedestrian111" depart="295.18">
        <walk edges="378479743#1 378479743#0 700440148 255729754#2 255729754#1 255729754#0 150041716#4 150041716#3 -150041716#2 150041716#1 150041551#2 4295817#3"/>
    </person>
    <person id="pedestrian112" depart="297.91">
        <walk edges="253230759#1 253230759#0 -378479743#0 -378479743#1 -378479743#2 -378479743#3 -23248109#1 378479753 395456769#1 395456769#0"/>
    </person>
    <person id="pedestrian115" depart="300.82">
        <walk edges="150041716#4 150041716#3 -150041716#2 150041716#1 150041594#0 1290085526#0 700440129 -700440128 -700440130#1 -700440130#0 150041699#1 -150041645#0"/>
    </person>
    <person id="pedestrian116" depart="302.25">
        <walk edges="29895520#3 -29895520#2 -29895520#1 29895520#0 -29895519#2 -29895519#1 150041716#3 150041716#4 255729754#0 255729754#1 465884703#2 -1244524929 253230759#1 -23599727#0 -23599727#1 334960660 -334960656"/>
    </person>
    <person id="pedestrian117" depart="302.29">
        <walk edges="-26730977#2 797259708#1 150032770#6 150032770#5 150032770#2 150032770#1 150032770#0 -327864903#0 -327864903#1 -218848625#1 -1287285290#3 -24507771 13858854 -47492539 -13858853 4195610#2 484022097 -4144040#2 -4144040#1 -4195580#0 -4195580#1 -4195580#2 -715835444#1 -715835444#2 -715835444#3"/>
    </person>
    <person id="pedestrian118" depart="303.17">
        <walk edges="-465884704 -459339931 -28247400#1 -28247400#0 4209642 1244524929 4144040#4 4144040#3 -484022097"/>
    </person>
    <person id="pedestrian119" depart="303.51">
        <walk edges="-4295817#3 -150041551#3 150041716#1 -150041716#2 150041716#3 150041716#4 255729754#0 255729754#1 255729754#2 700440148 378479743#0 378479743#1 378479743#2 378479743#3 -23248109#1 -23248109#0 -23248118 689756683 -638694840#1 638694840#0 378543238"/>
    </person>
    <person id="pedestrian120" depart="306.98">
        <walk edges="797259708#1 -149518804#3 -149518804#2 -149518804#0 -984768176#1 -150032873 700236092#1 700236092#0 378479743#6 -378479743#5 -378479743#4 -23248109#1 -23248109#0 -23248118 -689756683"/>
    </person>
    <person id="pedestrian121" depart="307.04">
        <walk edges="365216936#0 563896824 -24507771 13858854 -47492539 -13858853 4195610#2 484022097 -4144040#2 -4144040#1 4195580#0 4195580#1 4195580#2 715835444#1 715835444#2 1153038902#4 -1185258336#0"/>
    </person>
    <person id="pedestrian122" depart="308.65">
        <walk edges="286497563 700440130#1 700440128 700440129 1290085526#0 150041594#0 150041716#1 -150041716#2 150041716#3 150041716#4 255729754#0 255729754#1 255729754#2 700440148 378479743#0 378479743#1 378479743#2 378479743#3 378479743#4 378479743#5 378479743#6 700236092#0 700236092#1 -150032873 -984768176#1 255729814#0 255729814#1 -150032770#6 218649572 319910922 319910923#0 319911562"/>
    </person>
    <person id="pedestrian123" depart="314.48">
        <walk edges="-150032770#6 255729814#1 150032812#1 -149518804#2 -149518804#3 -23401995#1 -23401995#2"/>
    </person>
    <person id="pedestrian124" depart="318.20">
        <walk edges="-694836605 694836603 694836606 694832101 715910744#0 150041716#4 150041716#3 -29895519#1 -886547965#1 886404164#0 1207750548"/>
    </person>
    <person id="pedestrian125" depart="322.18">
        <walk edges="150041661 -150041636#1 -150041636#0 -378491236 E4 255729797#1 689912266 689912267#0"/>
    </person>
    <person id="pedestrian126" depart="323.13">
        <walk edges="327864908 327864907 218848626#1 -327864903#1 -218848625#1 -1287285290#3 -24507771 13858854 -47492539 -13858853 4195610#2 484022097 -4144040#2 -4144040#1 4195580#0 4195580#1 4195580#2 715835444#1 715835444#2 1153038902#4 1153038902#2 -1153038902#0 -29895520#3 -23101679#0 150041551#1 -4295817#3 -4295817#1 -4295817#0 -700440128"/>
    </person>
    <person id="pedestrian127" depart="323.59">
        <walk edges="-23401995#2 -23401995#1 -149518804#3 -149518804#2 -149518804#0 -984768176#1 -150032873 700236092#1 700236092#0 378479743#6 378479743#5 378479743#4 378479743#3 378479743#2 378479743#1 378479743#0 700440148 255729754#2 255729754#1 255729754#0 150041716#4 150041716#3 -150041716#2 150041716#1 150041594#0 1290085526#0 700440129"/>
    </person>