<?xml version="1.0" encoding="UTF-8"?>

<!-- generated on 2024-10-31 12:35:38.347515 by randomTrips.py UNKNOWN
<configuration>
    <net-file value="/opt/homebrew/opt/sumo/share/sumo/tools/2024-10-08-17-29-51/241031/241031_A131.net.xml"/>
    <route-file value="241031_random_route_pedestrian.rou.xml"/>
    <pedestrians value="True"/>
    <prefix value="pedestrian"/>
    <verbose value="True"/>
    <insertion-density value="70.0"/>
    <random-depart value="True"/>
</configuration>
-->

<routes xmlns:xsi="http://www.w3.org/2001/XMLSchema-instance" xsi:noNamespaceSchemaLocation="http://sumo.dlr.de/xsd/routes_file.xsd">
    <person id="pedestrian0" depart="1.08">
        <walk from="365216933" to="378479743#0"/>
    </person>
    <person id="pedestrian1" depart="2.73">
        <walk from="563630392#0" to="957138676#0"/>
    </person>
    <person id="pedestrian2" depart="6.08">
        <walk from="-23599727#0" to="-E1"/>
    </person>
    <person id="pedestrian3" depart="10.28">
        <walk from="24509268" to="-715802321"/>
    </person>
    <person id="pedestrian4" depart="11.83">
        <walk from="150032863#1" to="-539841923#0"/>
    </person>
    <person id="pedestrian5" depart="14.79">
        <walk from="-465884704" to="-150041716#2"/>
    </person>
    <person id="pedestrian6" depart="21.24">
        <walk from="-624481020#1" to="115485620#1"/>
    </person>
    <person id="pedestrian7" depart="29.32">
        <walk from="257510648" to="-465884704"/>
    </person>
    <person id="pedestrian8" depart="31.71">
        <walk from="563630394#0" to="-285188048"/>
    </person>
    <person id="pedestrian9" depart="33.55">
        <walk from="-715835444#5" to="255729814#0"/>
    </person>
    <person id="pedestrian10" depart="41.03">
        <walk from="-700440129" to="4144040#0"/>
    </person>
    <person id="pedestrian11" depart="50.97">
        <walk from="150041636#1" to="150041716#3"/>
    </person>
    <person id="pedestrian12" depart="56.68">
        <walk from="150041636#1" to="-69990704"/>
    </person>
    <person id="pedestrian13" depart="57.95">
        <walk from="-1185258340#0" to="750168166#0"/>
    </person>
    <person id="pedestrian14" depart="60.05">
        <walk from="150041689" to="886404164#0"/>
    </person>
    <person id="pedestrian15" depart="60.10">
        <walk from="-4144040#0" to="-886547965#0"/>
    </person>
    <person id="pedestrian16" depart="70.60">
        <walk from="-149518804#2" to="150041624#3"/>
    </person>
    <person id="pedestrian17" depart="76.07">
        <walk from="624481020#2" to="286497563"/>
    </person>
    <person id="pedestrian18" depart="77.54">
        <walk from="150032863#3" to="22938316#1"/>
    </person>
    <person id="pedestrian19" depart="79.79">
        <walk from="539841923#1" to="13858859"/>
    </person>
    <person id="pedestrian20" depart="79.92">
        <walk from="624481020#2" to="365217759"/>
    </person>
    <person id="pedestrian21" depart="83.02">
        <walk from="4144040#1" to="-987109590"/>
    </person>
    <person id="pedestrian22" depart="84.64">
        <walk from="1185258340#0" to="255729754#1"/>
    </person>
    <person id="pedestrian23" depart="86.84">
        <walk from="-365216932" to="23508142#0"/>
    </person>
    <person id="pedestrian24" depart="87.01">
        <walk from="-150041624#0" to="150041682"/>
    </person>
    <person id="pedestrian25" depart="101.27">
        <walk from="4144040#1" to="-563630392#1"/>
    </person>
    <person id="pedestrian26" depart="102.36">
        <walk from="987109590" to="319910922"/>
    </person>
    <person id="pedestrian27" depart="105.12">
        <walk from="-23401995#2" to="886547966"/>
    </person>
    <person id="pedestrian28" depart="105.23">
        <walk from="1185258336#4" to="4305021#1"/>
    </person>
    <person id="pedestrian29" depart="111.69">
        <walk from="-750168165" to="715910744#1"/>
    </person>
    <person id="pedestrian30" depart="115.43">
        <walk from="395456768" to="-378479743#0"/>
    </person>
    <person id="pedestrian31" depart="117.24">
        <walk from="150041699#2" to="150041636#2"/>
    </person>
    <person id="pedestrian32" depart="125.62">
        <walk from="-148061776#0" to="-256102751#0"/>
    </person>
    <person id="pedestrian33" depart="127.62">
        <walk from="-715913363#2" to="150032866"/>
    </person>
    <person id="pedestrian34" depart="127.63">
        <walk from="150032812#0" to="256105105#6"/>
    </person>
    <person id="pedestrian35" depart="127.91">
        <walk from="150041716#4" to="-715835444#5"/>
    </person>
    <person id="pedestrian36" depart="130.71">
        <walk from="257510647#1" to="-285188051#1"/>
    </person>
    <person id="pedestrian37" depart="133.77">
        <walk from="999293416" to="378479743#3"/>
    </person>
    <person id="pedestrian38" depart="147.55">
        <walk from="-640167405" to="-750168164"/>
    </person>
    <person id="pedestrian39" depart="151.28">
        <walk from="478347393" to="218848626#1"/>
    </person>
    <person id="pedestrian40" depart="151.68">
        <walk from="35098345" to="-640167405"/>
    </person>
    <person id="pedestrian41" depart="154.13">
        <walk from="465884703#1" to="-999293416"/>
    </person>
    <person id="pedestrian42" depart="154.95">
        <walk from="319910910#1" to="984768175"/>
    </person>
    <person id="pedestrian43" depart="156.74">
        <walk from="256102746#0" to="43206316"/>
    </person>
    <person id="pedestrian44" depart="156.96">
        <walk from="365217758" to="319910933#0"/>
    </person>
    <person id="pedestrian45" depart="162.04">
        <walk from="-1185258343" to="150032877"/>
    </person>
    <person id="pedestrian46" depart="163.06">
        <walk from="886404164#0" to="4213557"/>
    </person>
    <person id="pedestrian47" depart="163.34">
        <walk from="4195580#2" to="255729814#0"/>
    </person>
    <person id="pedestrian48" depart="164.15">
        <walk from="365216936#0" to="256102746#0"/>
    </person>
    <person id="pedestrian49" depart="164.24">
        <walk from="-29895517" to="28247397#1"/>
    </person>
    <person id="pedestrian50" depart="168.05">
        <walk from="26730977#2" to="539509020"/>
    </person>
    <person id="pedestrian51" depart="171.96">
        <walk from="-28247399" to="319910922"/>
    </person>
    <person id="pedestrian52" depart="173.50">
        <walk from="-1287285290#0" to="750168166#1"/>
    </person>
    <person id="pedestrian53" depart="173.80">
        <walk from="-23101679#1" to="-1185258337"/>
    </person>
    <person id="pedestrian54" depart="178.05">
        <walk from="-700440129" to="-28247400#1"/>
    </person>
    <person id="pedestrian55" depart="178.44">
        <walk from="319910933#1" to="1287285289"/>
    </person>
    <person id="pedestrian56" depart="181.68">
        <walk from="4195580#2" to="700440138"/>
    </person>
    <person id="pedestrian57" depart="185.64">
        <walk from="56447699#1" to="378479743#1"/>
    </person>
    <person id="pedestrian58" depart="186.38">
        <walk from="-150032873" to="-256102751#0"/>
    </person>
    <person id="pedestrian59" depart="186.98">
        <walk from="-378479743#4" to="-715835444#4"/>
    </person>
    <person id="pedestrian60" depart="188.88">
        <walk from="29895519#2" to="196656222#2"/>
    </person>
    <person id="pedestrian61" depart="189.64">
        <walk from="-700440129" to="-29895519#2"/>
    </person>
    <person id="pedestrian62" depart="192.21">
        <walk from="700236092#1" to="-750168166#1"/>
    </person>
    <person id="pedestrian63" depart="195.71">
        <walk from="-886547965#1" to="4195580#0"/>
    </person>
    <person id="pedestrian64" depart="200.66">
        <walk from="365216934" to="285156957"/>
    </person>
    <person id="pedestrian65" depart="205.13">
        <walk from="319911562" to="256105105#8"/>
    </person>
    <person id="pedestrian66" depart="205.38">
        <walk from="-35771743#1" to="-459339931"/>
    </person>
    <person id="pedestrian67" depart="206.00">
        <walk from="23599727#0" to="-4195580#0"/>
    </person>
    <person id="pedestrian68" depart="207.22">
        <walk from="886547965#1" to="-638694840#1"/>
    </person>
    <person id="pedestrian69" depart="210.23">
        <walk from="-624481020#0" to="-378479743#4"/>
    </person>
    <person id="pedestrian70" depart="210.57">
        <walk from="327864908" to="-700440130#1"/>
    </person>
    <person id="pedestrian71" depart="213.83">
        <walk from="-797259708#1" to="715835444#4"/>
    </person>
    <person id="pedestrian72" depart="214.28">
        <walk from="4305021#1" to="-56015406#0"/>
    </person>
    <person id="pedestrian73" depart="215.00">
        <walk from="-23508141#0" to="319910912"/>
    </person>
    <person id="pedestrian74" depart="224.43">
        <walk from="1153038902#4" to="984768175"/>
    </person>
    <person id="pedestrian75" depart="229.80">
        <walk from="465884703#2" to="797259708#1"/>
    </person>
    <person id="pedestrian76" depart="237.68">
        <walk from="439271817#2" to="-624481020#1"/>
    </person>
    <person id="pedestrian77" depart="239.42">
        <walk from="-585579893" to="359458217#2"/>
    </person>
    <person id="pedestrian78" depart="240.42">
        <walk from="-77706449" to="149518802#1"/>
    </person>
    <person id="pedestrian79" depart="241.30">
        <walk from="-478347396#0" to="150041551#1"/>
    </person>
    <person id="pedestrian80" depart="245.98">
        <walk from="-378479743#1" to="23101679#0"/>
    </person>
    <person id="pedestrian81" depart="246.63">
        <walk from="715835444#4" to="327864898"/>
    </person>
    <person id="pedestrian82" depart="248.17">
        <walk from="-256102751#0" to="257510648"/>
    </person>
    <person id="pedestrian83" depart="248.62">
        <walk from="256102748" to="-43206409"/>
    </person>
    <person id="pedestrian84" depart="249.30">
        <walk from="30147052" to="218848626#0"/>
    </person>
    <person id="pedestrian85" depart="253.16">
        <walk from="28247401" to="-149518804#3"/>
    </person>
    <person id="pedestrian86" depart="258.11">
        <walk from="1287285290#0" to="365216929"/>
    </person>
    <person id="pedestrian87" depart="258.88">
        <walk from="-182982119#1" to="4144040#4"/>
    </person>
    <person id="pedestrian88" depart="260.30">
        <walk from="-1153038902#4" to="23508141#0"/>
    </person>
    <person id="pedestrian89" depart="262.75">
        <walk from="715835444#2" to="1244524929"/>
    </person>
    <person id="pedestrian90" depart="263.51">
        <walk from="715835444#5" to="624481020#0"/>
    </person>
    <person id="pedestrian91" depart="265.71">
        <walk from="150041551#0" to="-378479743#0"/>
    </person>
    <person id="pedestrian92" depart="267.64">
        <walk from="881694398" to="-715835444#1"/>
    </person>
    <person id="pedestrian93" depart="269.02">
        <walk from="285188050" to="69990712"/>
    </person>
    <person id="pedestrian94" depart="269.79">
        <walk from="-150041689" to="255729797#1"/>
    </person>
    <person id="pedestrian95" depart="269.83">
        <walk from="22938316#0" to="365216936#1"/>
    </person>
    <person id="pedestrian96" depart="271.97">
        <walk from="715910744#0" to="700440128"/>
    </person>
    <person id="pedestrian97" depart="274.62">
        <walk from="-29895520#0" to="624481020#2"/>
    </person>
    <person id="pedestrian98" depart="276.68">
        <walk from="-29895520#0" to="700440130#1"/>
    </person>
    <person id="pedestrian99" depart="276.70">
        <walk from="E5" to="1185258338#0"/>
    </person>
    <person id="pedestrian100" depart="277.94">
        <walk from="150041624#3" to="715910744#0"/>
    </person>
    <person id="pedestrian101" depart="278.00">
        <walk from="881694397" to="715802321"/>
    </person>
    <person id="pedestrian102" depart="280.24">
        <walk from="585579893" to="-1160713521"/>
    </person>
    <person id="pedestrian103" depart="280.77">
        <walk from="253230759#1" to="-23101679#0"/>
    </person>
    <person id="pedestrian104" depart="284.06">
        <walk from="984768176#2" to="-572523427"/>
    </person>
    <person id="pedestrian105" depart="284.06">
        <walk from="987109590" to="23248118"/>
    </person>
    <person id="pedestrian106" depart="285.13">
        <walk from="150041624#3" to="715910744#1"/>
    </person>
    <person id="pedestrian107" depart="290.55">
        <walk from="56015406#1" to="150032863#2"/>
    </person>
    <person id="pedestrian108" depart="291.88">
        <walk from="-35771743#1" to="-23248109#1"/>
    </person>
    <person id="pedestrian109" depart="292.43">
        <walk from="-285188051#1" to="150032812#1"/>
    </person>
    <person id="pedestrian110" depart="292.63">
        <walk from="-478347396#0" to="-334960656"/>
    </person>
    <person id="pedestrian111" depart="295.18">
        <walk from="378479743#1" to="4295817#3"/>
    </person>
    <person id="pedestrian112" depart="297.91">
        <walk from="253230759#1" to="395456769#0"/>
    </person>
    <person id="pedestrian113" depart="298.12">
        <walk from="-29895520#0" to="563630388"/>
    </person>
    <person id="pedestrian114" depart="298.37">
        <walk from="694832101" to="478347392#1"/>
    </person>
    <person id="pedestrian115" depart="300.82">
        <walk from="150041716#4" to="-150041645#0"/>
    </person>
    <person id="pedestrian116" depart="302.25">
        <walk from="29895520#3" to="-334960656"/>
    </person>
    <person id="pedestrian117" depart="302.29">
        <walk from="-26730977#2" to="-715835444#3"/>
    </person>
    <person id="pedestrian118" depart="303.17">
        <walk from="-465884704" to="-484022097"/>
    </person>
    <person id="pedestrian119" depart="303.51">
        <walk from="-4295817#3" to="378543238"/>
    </person>
    <person id="pedestrian120" depart="306.98">
        <walk from="797259708#1" to="-689756683"/>
    </person>
    <person id="pedestrian121" depart="307.04">
        <walk from="365216936#0" to="-1185258336#0"/>
    </person>
    <person id="pedestrian122" depart="308.65">
        <walk from="286497563" to="319911562"/>
    </person>
    <person id="pedestrian123" depart="314.48">
        <walk from="-150032770#6" to="-23401995#2"/>
    </person>
    <person id="pedestrian124" depart="318.20">
        <walk from="-694836605" to="1207750548"/>
    </person>
    <person id="pedestrian125" depart="322.18">
        <walk from="150041661" to="689912267#0"/>
    </person>
    <person id="pedestrian126" depart="323.13">
        <walk from="327864908" to="-700440128"/>
    </person>
    <person id="pedestrian127" depart="323.59">
        <walk from="-23401995#2" to="700440129"/>
    </person>
    <person id="pedestrian128" depart="326.27">
        <walk from="-638694840#0" to="257510648"/>
    </person>
    <person id="pedestrian129" depart="327.34">
        <walk from="-4144040#2" to="-24507771"/>
    </person>
    <person id="pedestrian130" depart="329.74">
        <walk from="-28247400#2" to="378479753"/>
    </person>
    <person id="pedestrian131" depart="330.40">
        <walk from="256105105#6" to="1287285290#2"/>
    </person>
    <person id="pedestrian132" depart="332.56">
        <walk from="23508141#0" to="150032863#4"/>
    </person>
    <person id="pedestrian133" depart="332.99">
        <walk from="22938316#1" to="29895520#0"/>
    </person>
    <person id="pedestrian134" depart="335.46">
        <walk from="-4144040#1" to="-465884704"/>
    </person>
    <person id="pedestrian135" depart="335.47">
        <walk from="378543238" to="56447699#1"/>
    </person>
    <person id="pedestrian136" depart="339.00">
        <walk from="-150041636#1" to="149518804#3"/>
    </person>
    <person id="pedestrian137" depart="347.02">
        <walk from="327864908" to="-150041624#2"/>
    </person>
    <person id="pedestrian138" depart="347.27">
        <walk from="245221889" to="-150032770#6"/>
    </person>
    <person id="pedestrian139" depart="359.70">
        <walk from="23401995#3" to="150041689"/>
    </person>
    <person id="pedestrian140" depart="360.80">
        <walk from="255729754#2" to="-28247400#0"/>
    </person>
    <person id="pedestrian141" depart="369.16">
        <walk from="-715835444#5" to="185104104"/>
    </person>
    <person id="pedestrian142" depart="372.22">
        <walk from="-23401995#1" to="-378479743#3"/>
    </person>
    <person id="pedestrian143" depart="375.36">
        <walk from="256102746#0" to="-150041699#1"/>
    </person>
    <person id="pedestrian144" depart="375.62">
        <walk from="150041716#1" to="439273272"/>
    </person>
    <person id="pedestrian145" depart="378.89">
        <walk from="150032770#5" to="150041716#2"/>
    </person>
    <person id="pedestrian146" depart="379.34">
        <walk from="150032812#0" to="-150032770#2"/>
    </person>
    <person id="pedestrian147" depart="381.84">
        <walk from="150032842" to="439271818#2"/>
    </person>
    <person id="pedestrian148" depart="383.40">
        <walk from="365216936#1" to="1185258337"/>
    </person>
    <person id="pedestrian149" depart="387.13">
        <walk from="465884703#1" to="378479743#6"/>
    </person>
    <person id="pedestrian150" depart="389.99">
        <walk from="255729814#0" to="-148061776#0"/>
    </person>
    <person id="pedestrian151" depart="395.33">
        <walk from="-750168167" to="-150032873"/>
    </person>
    <person id="pedestrian152" depart="396.54">
        <walk from="E1.13" to="715835444#5"/>
    </person>
    <person id="pedestrian153" depart="397.16">
        <walk from="-150041551#3" to="715835444#4"/>
    </person>
    <person id="pedestrian154" depart="397.96">
        <walk from="-1287285290#0" to="1244524930"/>
    </person>
    <person id="pedestrian155" depart="405.42">
        <walk from="4144040#3" to="4144040#2"/>
    </person>
    <person id="pedestrian156" depart="406.40">
        <walk from="957138676#2" to="285188050"/>
    </person>
    <person id="pedestrian157" depart="408.94">
        <walk from="1287285290#4" to="E1"/>
    </person>
    <person id="pedestrian158" depart="411.23">
        <walk from="115485620#0" to="563896824"/>
    </person>
    <person id="pedestrian159" depart="411.58">
        <walk from="69990704" to="1153038902#0"/>
    </person>
    <person id="pedestrian160" depart="413.34">
        <walk from="319910923#0" to="29895519#2"/>
    </person>
    <person id="pedestrian161" depart="420.60">
        <walk from="23101679#0" to="285295366"/>
    </person>
    <person id="pedestrian162" depart="420.65">
        <walk from="-77706449" to="-29895520#2"/>
    </person>
    <person id="pedestrian163" depart="421.60">
        <walk from="22938316#1" to="218848625#1"/>
    </person>
    <person id="pedestrian164" depart="423.69">
        <walk from="365217759" to="-4144040#4"/>
    </person>
    <person id="pedestrian165" depart="424.57">
        <walk from="-1153038902#2" to="-1185258339"/>
    </person>
    <person id="pedestrian166" depart="428.24">
        <walk from="-638694840#1" to="319910910#1"/>
    </person>
    <person id="pedestrian167" depart="432.33">
        <walk from="23401995#1" to="218848626#1"/>
    </person>
    <person id="pedestrian168" depart="435.12">
        <walk from="478347391" to="-465884704"/>
    </person>
    <person id="pedestrian169" depart="436.22">
        <walk from="-750404423" to="-563630391"/>
    </person>
    <person id="pedestrian170" depart="438.85">
        <walk from="715910744#0" to="365217758"/>
    </person>
    <person id="pedestrian171" depart="442.32">
        <walk from="-23248109#1" to="439273272"/>
    </person>
    <person id="pedestrian172" depart="443.63">
        <walk from="1287285290#4" to="4144040#2"/>
    </person>
    <person id="pedestrian173" depart="446.15">
        <walk from="624481020#4" to="-1185258336#3"/>
    </person>
    <person id="pedestrian174" depart="447.61">
        <walk from="-378479743#4" to="-182982119#1"/>
    </person>
    <person id="pedestrian175" depart="449.53">
        <walk from="-1287285290#1" to="256105105#1"/>
    </person>
    <person id="pedestrian176" depart="454.44">
        <walk from="327864907" to="-149518804#0"/>
    </person>
    <person id="pedestrian177" depart="455.03">
        <walk from="378479743#3" to="1185258342"/>
    </person>
    <person id="pedestrian178" depart="456.17">
        <walk from="-4295817#1" to="-4144040#1"/>
    </person>
    <person id="pedestrian179" depart="458.28">
        <walk from="563630393" to="-150032770#1"/>
    </person>
    <person id="pedestrian180" depart="464.56">
        <walk from="150041682" to="-624481020#0"/>
    </person>
    <person id="pedestrian181" depart="464.75">
        <walk from="465884703#1" to="366601856"/>
    </person>
    <person id="pedestrian182" depart="466.18">
        <walk from="-715802321" to="256105105#1"/>
    </person>
    <person id="pedestrian183" depart="467.39">
        <walk from="319910910#0" to="-715835444#1"/>
    </person>
    <person id="pedestrian184" depart="467.59">
        <walk from="-689756683" to="-28230108"/>
    </person>
    <person id="pedestrian185" depart="468.29">
        <walk from="29895519#1" to="-4144040#3"/>
    </person>
    <person id="pedestrian186" depart="469.01">
        <walk from="-689756683" to="-150032770#6"/>
    </person>
    <person id="pedestrian187" depart="469.44">
        <walk from="750168167" to="624481020#1"/>
    </person>
    <person id="pedestrian188" depart="470.76">
        <walk from="700236092#1" to="28230108"/>
    </person>
    <person id="pedestrian189" depart="471.49">
        <walk from="13858853" to="150041636#0"/>
    </person>
    <person id="pedestrian190" depart="472.56">
        <walk from="886547965#1" to="750168164"/>
    </person>
    <person id="pedestrian191" depart="475.06">
        <walk from="30147052" to="4213561#1"/>
    </person>
    <person id="pedestrian192" depart="477.66">
        <walk from="-715802321" to="1287285290#2"/>
    </person>
    <person id="pedestrian193" depart="481.26">
        <walk from="-28247400#0" to="1153038902#0"/>
    </person>
    <person id="pedestrian194" depart="482.48">
        <walk from="378543238" to="150032866"/>
    </person>
    <person id="pedestrian195" depart="489.85">
        <walk from="56015406#0" to="-689756683"/>
    </person>
    <person id="pedestrian196" depart="494.06">
        <walk from="334960660" to="439271818#0"/>
    </person>
    <person id="pedestrian197" depart="497.11">
        <walk from="700440128" to="24509268"/>
    </person>
    <person id="pedestrian198" depart="497.57">
        <walk from="886404164#0" to="23508224"/>
    </person>
    <person id="pedestrian199" depart="497.72">
        <walk from="-24507771" to="-43206409"/>
    </person>
    <person id="pedestrian200" depart="500.34">
        <walk from="-378479743#2" to="285188051#0"/>
    </person>
    <person id="pedestrian201" depart="502.20">
        <walk from="700440139" to="539841923#1"/>
    </person>
    <person id="pedestrian202" depart="509.30">
        <walk from="-150041699#2" to="365216936#1"/>
    </person>
    <person id="pedestrian203" depart="510.07">
        <walk from="-35771743#0" to="-539841923#1"/>
    </person>
    <person id="pedestrian204" depart="512.98">
        <walk from="319910910#1" to="256105105#4"/>
    </person>
    <person id="pedestrian205" depart="517.85">
        <walk from="56447699#1" to="-35098345"/>
    </person>
    <person id="pedestrian206" depart="517.94">
        <walk from="409784476" to="365216936#1"/>
    </person>
    <person id="pedestrian207" depart="518.86">
        <walk from="23599727#0" to="150041551#1"/>
    </person>
    <person id="pedestrian208" depart="521.65">
        <walk from="563896824" to="-715913363#2"/>
    </person>
    <person id="pedestrian209" depart="522.01">
        <walk from="806364424" to="-1185258336#3"/>
    </person>
    <person id="pedestrian210" depart="522.10">
        <walk from="715910744#0" to="881694397"/>
    </person>
    <person id="pedestrian211" depart="523.55">
        <walk from="-23401995#2" to="E6"/>
    </person>
    <person id="pedestrian212" depart="525.55">
        <walk from="150041551#1" to="-43206409"/>
    </person>
    <person id="pedestrian213" depart="525.65">
        <walk from="256105105#5" to="-378479743#3"/>
    </person>
    <person id="pedestrian214" depart="532.80">
        <walk from="700440129" to="23508141#1"/>
    </person>
    <person id="pedestrian215" depart="536.25">
        <walk from="4195580#2" to="115485617"/>
    </person>
    <person id="pedestrian216" depart="541.04">
        <walk from="22911004" to="-984768175"/>
    </person>
    <person id="pedestrian217" depart="546.07">
        <walk from="-494297578#1" to="150041716#2"/>
    </person>
    <person id="pedestrian218" depart="546.28">
        <walk from="150041636#0" to="-150041716#3"/>
    </person>
    <person id="pedestrian219" depart="555.65">
        <walk from="984768176#1" to="150032863#3"/>
    </person>
    <person id="pedestrian220" depart="555.76">
        <walk from="528567529" to="700440128"/>
    </person>
    <person id="pedestrian221" depart="560.45">
        <walk from="-E1" to="1287285290#1"/>
    </person>
    <person id="pedestrian222" depart="562.64">
        <walk from="24509268" to="-4144040#3"/>
    </person>
    <person id="pedestrian223" depart="563.90">
        <walk from="-28247397#1" to="-484022097"/>
    </person>
    <person id="pedestrian224" depart="566.05">
        <walk from="715835444#5" to="255729814#1"/>
    </person>
    <person id="pedestrian225" depart="568.69">
        <walk from="1287285290#3" to="-28247400#1"/>
    </person>
    <person id="pedestrian226" depart="571.63">
        <walk from="-715910744#0" to="1153038902#4"/>
    </person>
    <person id="pedestrian227" depart="574.94">
        <walk from="494297578#1" to="150041636#2"/>
    </person>
    <person id="pedestrian228" depart="579.63">
        <walk from="286497563" to="319910923#1"/>
    </person>
    <person id="pedestrian229" depart="585.45">
        <walk from="-478347396#0" to="47492539"/>
    </person>
    <person id="pedestrian230" depart="586.05">
        <walk from="886404164#0" to="283117346#1"/>
    </person>
    <person id="pedestrian231" depart="596.65">
        <walk from="150041624#1" to="-286497563"/>
    </person>
    <person id="pedestrian232" depart="598.18">
        <walk from="4305021#1" to="-29895517"/>
    </person>
    <person id="pedestrian233" depart="599.54">
        <walk from="365216934" to="150041594#0"/>
    </person>
    <person id="pedestrian234" depart="603.76">
        <walk from="700440130#0" to="23248118"/>
    </person>
    <person id="pedestrian235" depart="604.18">
        <walk from="283117346#1" to="-150032770#5"/>
    </person>
    <person id="pedestrian236" depart="606.86">
        <walk from="-1287285290#2" to="539841923#1"/>
    </person>
    <person id="pedestrian237" depart="608.20">
        <walk from="750168166#0" to="29895520#3"/>
    </person>
    <person id="pedestrian238" depart="610.44">
        <walk from="4144040#1" to="1287285290#0"/>
    </person>
    <person id="pedestrian239" depart="612.22">
        <walk from="539841922" to="-4295817#0"/>
    </person>
    <person id="pedestrian240" depart="621.06">
        <walk from="334960660" to="-1160713521"/>
    </person>
    <person id="pedestrian241" depart="623.23">
        <walk from="150041689" to="1125742272"/>
    </person>
    <person id="pedestrian242" depart="624.20">
        <walk from="257510661#2" to="29895520#2"/>
    </person>
    <person id="pedestrian243" depart="632.51">
        <walk from="257510661#2" to="150041576#1"/>
    </person>
    <person id="pedestrian244" depart="633.22">
        <walk from="150041594#0" to="-115485620#0"/>
    </person>
    <person id="pedestrian245" depart="634.26">
        <walk from="23508141#1" to="-1185258336#0"/>
    </person>
    <person id="pedestrian246" depart="634.67">
        <walk from="218848626#0" to="-56015406#1"/>
    </person>
    <person id="pedestrian247" depart="641.98">
        <walk from="957138676#2" to="-1185258336#4"/>
    </person>
    <person id="pedestrian248" depart="644.45">
        <walk from="459339931" to="319910910#1"/>
    </person>
    <person id="pedestrian249" depart="644.74">
        <walk from="439271818#0" to="700236092#0"/>
    </person>
    <person id="pedestrian250" depart="645.65">
        <walk from="-23101679#0" to="-150041716#2"/>
    </person>
    <person id="pedestrian251" depart="651.84">
        <walk from="-28247399" to="-35771743#1"/>
    </person>
    <person id="pedestrian252" depart="653.78">
        <walk from="218649572" to="465884703#0"/>
    </person>
    <person id="pedestrian253" depart="658.83">
        <walk from="-539841923#0" to="1185258338#0"/>
    </person>
    <person id="pedestrian254" depart="661.31">
        <walk from="1125742272" to="1207750548"/>
    </person>
    <person id="pedestrian255" depart="661.86">
        <walk from="253230759#0" to="999293416"/>
    </person>
    <person id="pedestrian256" depart="663.39">
        <walk from="-4195580#1" to="319910923#1"/>
    </person>
    <person id="pedestrian257" depart="663.64">
        <walk from="55556572" to="286497563"/>
    </person>
    <person id="pedestrian258" depart="664.26">
        <walk from="563630391" to="395456769#1"/>
    </person>
    <person id="pedestrian259" depart="673.53">
        <walk from="-150041699#2" to="1153038902#4"/>
    </person>
    <person id="pedestrian260" depart="676.95">
        <walk from="23508142#0" to="-150032770#1"/>
    </person>
    <person id="pedestrian261" depart="679.37">