<?xml version="1.0" encoding="UTF-8"?>

<!-- generated on 2024-09-22 23:25:59 by Eclipse SUMO netconvert Version 1.20.0
<configuration xmlns:xsi="http://www.w3.org/2001/XMLSchema-instance" xsi:noNamespaceSchemaLocation="http://sumo.dlr.de/xsd/netconvertConfiguration.xsd">

    <input>
        <type-files value="${SUMO_HOME}/data/typemap/osmNetconvert.typ.xml"/>
        <osm-files value="osm_bbox.osm.xml.gz"/>
    </input>

    <output>
        <output-file value="osm.net.xml.gz"/>
        <output.street-names value="true"/>
        <output.original-names value="true"/>
    </output>

    <projection>
        <proj.utm value="true"/>
    </projection>

    <processing>
        <geometry.remove value="true"/>
        <roundabouts.guess value="true"/>
    </processing>

    <tls_building>
        <tls.discard-simple value="true"/>
        <tls.join value="true"/>
        <tls.guess-signals value="true"/>
        <tls.default-type value="actuated"/>
    </tls_building>

    <ramp_guessing>
        <ramps.guess value="true"/>
    </ramp_guessing>

    <junctions>
        <junctions.join value="true"/>
        <junctions.corner-detail value="5"/>
    </junctions>

</configuration>
-->

<net version="1.20" junctionCornerDetail="5" limitTurnSpeed="5.50" xmlns:xsi="http://www.w3.org/2001/XMLSchema-instance" xsi:noNamespaceSchemaLocation="http://sumo.dlr.de/xsd/net_file.xsd">

    <location netOffset="-390577.46,-5819599.84" convBoundary="0.00,0.00,1403.76,956.29" origBoundary="13.387384,52.515785,13.407875,52.524216" projParameter="+proj=utm +zone=33 +ellps=WGS84 +datum=WGS84 +units=m +no_defs"/>

    <type id="highway.cycleway" priority="1" numLanes="1" speed="5.56" allow="bicycle" oneway="0" width="2.00"/>
    <type id="highway.footway" priority="1" numLanes="1" speed="2.78" allow="pedestrian" oneway="1" width="2.00"/>
    <type id="highway.living_street" priority="2" numLanes="1" speed="2.78" disallow="tram rail_urban rail rail_electric rail_fast ship container cable_car subway aircraft wheelchair scooter drone" oneway="0"/>
    <type id="highway.path" priority="1" numLanes="1" speed="5.56" allow="pedestrian bicycle" oneway="0" width="2.00"/>
    <type id="highway.pedestrian" priority="1" numLanes="1" speed="2.78" allow="pedestrian" oneway="1" width="2.00"/>
    <type id="highway.primary" priority="12" numLanes="2" speed="27.78" disallow="tram rail_urban rail rail_electric rail_fast ship container cable_car subway aircraft wheelchair scooter drone" oneway="0"/>
    <type id="highway.residential" priority="3" numLanes="1" speed="13.89" disallow="tram rail_urban rail rail_electric rail_fast ship container cable_car subway aircraft wheelchair scooter drone" oneway="0"/>
    <type id="highway.secondary" priority="11" numLanes="1" speed="27.78" disallow="tram rail_urban rail rail_electric rail_fast ship container cable_car subway aircraft wheelchair scooter drone" oneway="0"/>
    <type id="highway.service" priority="1" numLanes="1" speed="5.56" allow="pedestrian delivery bicycle" oneway="0"/>
    <type id="highway.steps" priority="1" numLanes="1" speed="1.39" allow="pedestrian" oneway="1" width="2.00"/>
    <type id="highway.tertiary" priority="10" numLanes="1" speed="22.22" disallow="tram rail_urban rail rail_electric rail_fast ship container cable_car subway aircraft wheelchair scooter drone" oneway="0"/>
    <type id="railway.light_rail" priority="19" numLanes="1" speed="27.78" allow="rail_urban" oneway="1"/>
    <type id="railway.rail" priority="20" numLanes="1" speed="44.44" allow="rail" oneway="1"/>
    <type id="railway.subway" priority="18" numLanes="1" speed="27.78" allow="subway" oneway="1"/>
    <type id="railway.tram" priority="17" numLanes="1" speed="13.89" allow="tram" oneway="1"/>

    <edge id=":10053209432_0" function="internal">
        <lane id=":10053209432_0_0" index="0" allow="pedestrian delivery bicycle" speed="8.33" length="5.98" shape="1104.34,560.39 1099.12,557.47"/>
    </edge>
    <edge id=":10053209432_1" function="internal">
        <lane id=":10053209432_1_0" index="0" allow="pedestrian delivery bicycle" speed="3.65" length="1.44" shape="1104.34,560.39 1103.69,559.11"/>
    </edge>
    <edge id=":10053209432_4" function="internal">
        <lane id=":10053209432_4_0" index="0" allow="pedestrian delivery bicycle" speed="3.65" length="3.23" shape="1103.69,559.11 1103.73,558.21 1104.47,557.71 1105.90,557.60"/>
    </edge>
    <edge id=":10053209432_2" function="internal">
        <lane id=":10053209432_2_0" index="0" allow="pedestrian delivery bicycle" speed="8.33" length="5.98" shape="1100.68,554.68 1105.90,557.60"/>
    </edge>
    <edge id=":10053209432_3" function="internal">
        <lane id=":10053209432_3_0" index="0" allow="pedestrian delivery bicycle" speed="3.65" length="1.44" shape="1100.68,554.68 1101.34,555.96"/>
    </edge>
    <edge id=":10053209432_5" function="internal">
        <lane id=":10053209432_5_0" index="0" allow="pedestrian delivery bicycle" speed="3.65" length="3.23" shape="1101.34,555.96 1101.30,556.85 1100.56,557.36 1099.12,557.47"/>
    </edge>
    <edge id=":10188353045_0" function="internal">
        <lane id=":10188353045_0_0" index="0" allow="pedestrian delivery bicycle" speed="3.65" length="4.67" shape="1225.09,352.43 1224.57,351.08 1224.71,350.20 1225.49,349.78 1226.94,349.82"/>
    </edge>
    <edge id=":10189040386_0" function="internal">
        <lane id=":10189040386_0_0" index="0" disallow="pedestrian tram rail_urban rail rail_electric rail_fast ship container cable_car subway aircraft wheelchair scooter drone" speed="13.89" length="8.21" shape="292.65,197.02 290.24,197.09 288.60,197.52 286.96,197.94 284.55,198.01"/>
        <lane id=":10189040386_0_1" index="1" disallow="pedestrian tram rail_urban rail rail_electric rail_fast ship container cable_car subway aircraft wheelchair scooter drone" speed="13.89" length="8.21" shape="292.89,193.83 290.48,193.90 288.84,194.32 287.20,194.75 284.79,194.82"/>
        <lane id=":10189040386_0_2" index="2" disallow="pedestrian tram rail_urban rail rail_electric rail_fast ship container cable_car subway aircraft wheelchair scooter drone" speed="13.89" length="8.21" shape="292.89,193.83 290.52,193.40 288.96,192.73 287.40,192.06 285.03,191.63"/>
    </edge>
    <edge id=":10196206493_0" function="internal">
        <lane id=":10196206493_0_0" index="0" allow="pedestrian delivery bicycle" speed="5.56" length="5.45" shape="232.82,715.54 232.35,720.96"/>
    </edge>
    <edge id=":10196206493_1" function="internal">
        <lane id=":10196206493_1_0" index="0" allow="pedestrian delivery bicycle" speed="3.65" length="1.44" shape="232.82,715.54 231.91,716.65"/>
    </edge>
    <edge id=":10196206493_4" function="internal">
        <lane id=":10196206493_4_0" index="0" allow="pedestrian delivery bicycle" speed="3.65" length="3.23" shape="231.91,716.65 231.08,716.97 230.32,716.50 229.64,715.22"/>
    </edge>
    <edge id=":10196206493_2" function="internal">
        <lane id=":10196206493_2_0" index="0" allow="pedestrian delivery bicycle" speed="5.56" length="5.51" shape="229.15,720.71 229.64,715.22"/>
    </edge>
    <edge id=":10196206493_3" function="internal">
        <lane id=":10196206493_3_0" index="0" allow="pedestrian delivery bicycle" speed="3.65" length="1.44" shape="229.15,720.71 230.05,719.58"/>
    </edge>
    <edge id=":10196206493_5" function="internal">
        <lane id=":10196206493_5_0" index="0" allow="pedestrian delivery bicycle" speed="3.65" length="3.23" shape="230.05,719.58 230.87,719.24 231.64,719.70 232.35,720.96"/>
    </edge>
    <edge id=":10196206498_0" function="internal">
        <lane id=":10196206498_0_0" index="0" allow="pedestrian delivery bicycle" speed="5.56" length="5.07" shape="319.10,611.77 314.05,611.29"/>
    </edge>
    <edge id=":10196206498_1" function="internal">
        <lane id=":10196206498_1_0" index="0" allow="pedestrian delivery bicycle" speed="3.65" length="1.44" shape="319.10,611.77 318.00,610.84"/>
    </edge>
    <edge id=":10196206498_4" function="internal">
        <lane id=":10196206498_4_0" index="0" allow="pedestrian delivery bicycle" speed="3.65" length="3.23" shape="318.00,610.84 317.69,610.00 318.18,609.25 319.47,608.59"/>
    </edge>
    <edge id=":10196206498_2" function="internal">
        <lane id=":10196206498_2_0" index="0" allow="pedestrian delivery bicycle" speed="5.56" length="5.16" shape="314.34,608.10 319.47,608.59"/>
    </edge>
    <edge id=":10196206498_3" function="internal">
        <lane id=":10196206498_3_0" index="0" allow="pedestrian delivery bicycle" speed="3.65" length="1.44" shape="314.34,608.10 315.46,609.00"/>
    </edge>
    <edge id=":10196206498_5" function="internal">
        <lane id=":10196206498_5_0" index="0" allow="pedestrian delivery bicycle" speed="3.65" length="3.23" shape="315.46,609.00 315.79,609.84 315.32,610.60 314.05,611.29"/>
    </edge>
    <edge id=":10196222666_0" function="internal">
        <lane id=":10196222666_0_0" index="0" allow="pedestrian delivery bicycle" speed="3.65" length="4.67" shape="478.55,843.18 477.17,842.77 476.55,842.13 476.69,841.25 477.60,840.13"/>
    </edge>
    <edge id=":10196222667_0" function="internal">
        <lane id=":10196222667_0_0" index="0" allow="pedestrian delivery bicycle" speed="5.09" length="5.07" shape="496.04,840.94 495.43,839.72 494.56,838.99 493.42,838.74 492.03,838.97"/>
    </edge>
    <edge id=":10196222667_1" function="internal">
        <lane id=":10196222667_1_0" index="0" disallow="tram rail_urban rail rail_electric rail_fast ship container cable_car subway aircraft wheelchair scooter drone" speed="8.33" length="9.41" shape="496.04,840.94 493.08,832.01"/>
    </edge>
    <edge id=":10196222667_2" function="internal">
        <lane id=":10196222667_2_0" index="0" disallow="tram rail_urban rail rail_electric rail_fast ship container cable_car subway aircraft wheelchair scooter drone" speed="8.33" length="9.43" shape="496.11,831.00 499.08,839.95"/>
    </edge>
    <edge id=":10196222667_3" function="internal">
        <lane id=":10196222667_3_0" index="0" allow="pedestrian delivery bicycle" speed="6.85" length="3.30" shape="496.11,831.00 496.62,833.77 496.51,834.24"/>
    </edge>
    <edge id=":10196222667_7" function="internal">
        <lane id=":10196222667_7_0" index="0" allow="pedestrian delivery bicycle" speed="6.85" length="6.96" shape="496.51,834.24 496.11,836.02 494.58,837.76 492.03,838.97"/>
    </edge>
    <edge id=":10196222667_4" function="internal">
        <lane id=":10196222667_4_0" index="0" allow="pedestrian delivery bicycle" speed="5.02" length="5.02" shape="491.08,835.91 492.33,835.32 493.07,834.47 493.33,833.37 493.08,832.01"/>
    </edge>
    <edge id=":10196222667_5" function="internal">
        <lane id=":10196222667_5_0" index="0" allow="pedestrian delivery bicycle" speed="6.90" length="10.18" shape="491.08,835.91 493.85,835.46 496.11,835.98 497.85,837.47 499.08,839.95"/>
    </edge>
    <edge id=":10196222667_6" function="internal">
        <lane id=":10196222667_6_0" index="0" allow="pedestrian delivery bicycle" speed="3.65" length="4.67" shape="491.08,835.91 492.46,836.32 493.08,836.96 492.94,837.85 492.03,838.97"/>
    </edge>
    <edge id=":10287056969_0" function="internal">
        <lane id=":10287056969_0_0" index="0" allow="pedestrian delivery bicycle" speed="3.73" length="4.96" shape="238.37,54.29 239.18,55.59 239.21,56.54 238.47,57.14 236.96,57.38"/>
    </edge>
    <edge id=":10287056970_0" function="internal">
        <lane id=":10287056970_0_0" index="0" allow="delivery bicycle" speed="6.09" length="7.76" shape="232.27,56.97 230.95,56.45 230.09,55.19 229.68,53.18 229.73,50.42"/>
    </edge>
    <edge id=":10287056970_1" function="internal">
        <lane id=":10287056970_1_0" index="0" allow="pedestrian delivery bicycle" speed="3.65" length="4.67" shape="232.27,56.97 231.15,56.06 230.82,55.23 231.29,54.47 232.56,53.78"/>
    </edge>
    <edge id=":10287056970_2" function="internal">
        <lane id=":10287056970_2_0" index="0" disallow="pedestrian tram rail_urban rail rail_electric rail_fast ship container cable_car subway aircraft wheelchair scooter drone" speed="8.33" length="9.40" shape="228.91,59.78 229.73,50.42"/>
    </edge>
    <edge id=":10287056970_3" function="internal">
        <lane id=":10287056970_3_0" index="0" allow="delivery bicycle" speed="6.08" length="7.76" shape="228.91,59.78 229.34,57.05 230.09,55.14 231.17,54.05 232.56,53.78"/>
    </edge>
    <edge id=":10287056971_0" function="internal">
        <lane id=":10287056971_0_0" index="0" allow="pedestrian delivery bicycle" speed="5.56" length="3.65" shape="236.76,57.36 233.13,57.04"/>
    </edge>
    <edge id=":10287056971_1" function="internal">
        <lane id=":10287056971_1_0" index="0" allow="pedestrian delivery bicycle" speed="3.73" length="1.32" shape="236.76,57.36 236.07,56.24"/>
    </edge>
    <edge id=":10287056971_4" function="internal">
        <lane id=":10287056971_4_0" index="0" allow="pedestrian delivery bicycle" speed="3.73" length="3.64" shape="236.07,56.24 235.95,56.06 235.92,55.11 236.66,54.52 238.17,54.27"/>
    </edge>
    <edge id=":10287056971_2" function="internal">
        <lane id=":10287056971_2_0" index="0" allow="pedestrian delivery bicycle" speed="5.56" length="4.78" shape="233.42,53.86 238.17,54.27"/>
    </edge>
    <edge id=":10287056971_3" function="internal">
        <lane id=":10287056971_3_0" index="0" allow="pedestrian delivery bicycle" speed="3.65" length="1.44" shape="233.42,53.86 234.54,54.76"/>
    </edge>
    <edge id=":10287056971_5" function="internal">
        <lane id=":10287056971_5_0" index="0" allow="pedestrian delivery bicycle" speed="3.65" length="3.23" shape="234.54,54.76 234.87,55.59 234.40,56.35 233.13,57.04"/>
    </edge>
    <edge id=":10287125256_0" function="internal">
        <lane id=":10287125256_0_0" index="0" allow="pedestrian delivery bicycle" speed="3.65" length="4.67" shape="213.16,463.53 214.28,464.43 214.61,465.26 214.14,466.02 212.88,466.72"/>
    </edge>
    <edge id=":10287125259_0" function="internal">
        <lane id=":10287125259_0_0" index="0" allow="pedestrian delivery bicycle" speed="3.65" length="4.67" shape="183.84,519.22 182.93,518.10 182.79,517.22 183.41,516.57 184.79,516.17"/>
    </edge>
    <edge id=":10287150283_0" function="internal">
        <lane id=":10287150283_0_0" index="0" allow="pedestrian delivery bicycle" speed="3.65" length="4.67" shape="91.35,576.10 92.48,577.00 92.80,577.84 92.33,578.60 91.06,579.28"/>
    </edge>
    <edge id=":10287150288_0" function="internal">
        <lane id=":10287150288_0_0" index="0" allow="tram" speed="13.89" length="5.45" shape="91.18,359.65 92.57,358.83 93.54,358.30 94.55,357.84 96.04,357.21"/>
    </edge>
    <edge id=":10287150289_0" function="internal">
        <lane id=":10287150289_0_0" index="0" allow="tram" speed="13.89" length="4.52" shape="96.09,360.68 94.85,361.20 94.01,361.57 93.21,362.01 92.11,362.78"/>
    </edge>
    <edge id=":10298577286_0" function="internal">
        <lane id=":10298577286_0_0" index="0" disallow="pedestrian tram rail_urban rail rail_electric rail_fast ship container cable_car subway aircraft wheelchair scooter drone" speed="13.89" length="8.21" shape="173.43,151.61 175.84,151.57 177.48,151.16 179.13,150.76 181.54,150.72"/>
        <lane id=":10298577286_0_1" index="1" disallow="pedestrian tram rail_urban rail rail_electric rail_fast ship container cable_car subway aircraft wheelchair scooter drone" speed="13.89" length="8.21" shape="173.15,154.80 175.56,154.76 177.20,154.35 178.85,153.94 181.26,153.90"/>
        <lane id=":10298577286_0_2" index="2" disallow="pedestrian tram rail_urban rail rail_electric rail_fast ship container cable_car subway aircraft wheelchair scooter drone" speed="13.89" length="8.21" shape="173.15,154.80 175.51,155.26 177.06,155.94 178.61,156.63 180.98,157.09"/>
    </edge>
    <edge id=":10300697367_0" function="internal">
        <lane id=":10300697367_0_0" index="0" allow="pedestrian delivery bicycle" speed="6.95" length="11.89" shape="532.18,927.67 532.63,930.46 531.81,932.85 529.75,934.83 526.42,936.41"/>
    </edge>
    <edge id=":10300697367_1" function="internal">
        <lane id=":10300697367_1_0" index="0" disallow="tram rail_urban rail rail_electric rail_fast ship container cable_car subway aircraft wheelchair scooter drone" speed="4.35" length="6.64" width="4.55" shape="532.18,927.67 531.69,929.66 530.81,930.58 529.55,930.42 527.90,929.20"/>
    </edge>
    <edge id=":10300697367_2" function="internal">
        <lane id=":10300697367_2_0" index="0" allow="pedestrian delivery bicycle" speed="5.26" length="5.57" shape="525.37,933.38 526.87,932.65 527.79,931.72 528.14,930.56 527.90,929.20"/>
    </edge>
    <edge id=":10300697374_0" function="internal">
        <lane id=":10300697374_0_0" index="0" allow="pedestrian delivery bicycle" speed="5.47" length="5.57" shape="520.85,909.50 520.18,908.31 519.18,907.64 517.87,907.48 516.23,907.84"/>
    </edge>
    <edge id=":10300697374_1" function="internal">
        <lane id=":10300697374_1_0" index="0" disallow="tram rail_urban rail rail_electric rail_fast ship container cable_car subway aircraft wheelchair scooter drone" speed="8.33" length="9.37" width="4.55" shape="520.85,909.50 517.76,900.65"/>
    </edge>
    <edge id=":10300697374_2" function="internal">
        <lane id=":10300697374_2_0" index="0" disallow="tram rail_urban rail rail_electric rail_fast ship container cable_car subway aircraft wheelchair scooter drone" speed="8.33" length="9.31" width="4.55" shape="522.06,899.18 525.14,907.96"/>
    </edge>
    <edge id=":10300697374_3" function="internal">
        <lane id=":10300697374_3_0" index="0" allow="pedestrian delivery bicycle" speed="6.95" length="4.01" shape="522.06,899.18 522.46,901.95 522.06,903.09"/>
    </edge>
    <edge id=":10300697374_7" function="internal">
        <lane id=":10300697374_7_0" index="0" allow="pedestrian delivery bicycle" speed="6.95" length="7.82" shape="522.06,903.09 521.63,904.32 519.55,906.28 516.23,907.84"/>
    </edge>
    <edge id=":10300697374_4" function="internal">
        <lane id=":10300697374_4_0" index="0" allow="pedestrian delivery bicycle" speed="5.27" length="5.55" shape="515.19,904.81 516.69,904.09 517.62,903.16 517.98,902.01 517.76,900.65"/>
    </edge>
    <edge id=":10300697374_5" function="internal">
        <lane id=":10300697374_5_0" index="0" allow="pedestrian delivery bicycle" speed="6.95" length="11.79" shape="515.19,904.81 518.76,904.00 521.61,904.25 523.73,905.57 525.14,907.96"/>
    </edge>
    <edge id=":10300697374_6" function="internal">
        <lane id=":10300697374_6_0" index="0" allow="pedestrian delivery bicycle" speed="3.65" length="4.67" shape="515.19,904.81 516.59,905.18 517.23,905.80 517.11,906.69 516.23,907.84"/>
    </edge>
    <edge id=":10301777692_0" function="internal">
        <lane id=":10301777692_0_0" index="0" allow="emergency authority pedestrian delivery bicycle" speed="3.65" length="4.67" shape="781.24,726.17 780.06,725.34 779.69,724.53 780.11,723.74 781.34,722.98"/>
    </edge>
    <edge id=":10315385453_0" function="internal">
        <lane id=":10315385453_0_0" index="0" allow="tram" speed="5.56" length="5.54" shape="914.68,723.60 916.28,723.24 917.38,722.99 918.49,722.82 920.13,722.73"/>
    </edge>
    <edge id=":10315421457_0" function="internal">
        <lane id=":10315421457_0_0" index="0" allow="tram" speed="13.89" length="5.17" shape="1110.89,815.81 1106.75,818.92"/>
    </edge>
    <edge id=":10555616512_0" function="internal">
        <lane id=":10555616512_0_0" index="0" allow="pedestrian delivery bicycle" speed="5.56" length="4.99" shape="825.52,518.52 822.54,522.52"/>
    </edge>
    <edge id=":10555616512_1" function="internal">
        <lane id=":10555616512_1_0" index="0" allow="pedestrian delivery bicycle" speed="3.65" length="4.68" shape="825.52,518.52 824.15,518.99 823.27,518.81 822.88,518.01 822.98,516.57"/>
    </edge>
    <edge id=":10555616512_2" function="internal">
        <lane id=":10555616512_2_0" index="0" allow="pedestrian delivery bicycle" speed="5.56" length="5.00" shape="819.99,520.57 822.98,516.57"/>
    </edge>
    <edge id=":10555616512_3" function="internal">
        <lane id=":10555616512_3_0" index="0" allow="pedestrian delivery bicycle" speed="3.65" length="4.67" shape="819.99,520.57 821.36,520.11 822.24,520.28 822.63,521.08 822.54,522.52"/>
    </edge>
    <edge id=":10555616513_0" function="internal">
        <lane id=":10555616513_0_0" index="0" allow="pedestrian delivery bicycle" speed="5.56" length="5.00" shape="767.76,479.88 764.72,483.84"/>
    </edge>
    <edge id=":10555616513_1" function="internal">
        <lane id=":10555616513_1_0" index="0" allow="pedestrian delivery bicycle" speed="3.65" length="1.44" shape="767.76,479.88 766.40,480.36"/>
    </edge>
    <edge id=":10555616513_4" function="internal">
        <lane id=":10555616513_4_0" index="0" allow="pedestrian delivery bicycle" speed="3.65" length="3.23" shape="766.40,480.36 765.52,480.21 765.11,479.41 765.19,477.97"/>
    </edge>
    <edge id=":10555616513_2" function="internal">
        <lane id=":10555616513_2_0" index="0" allow="pedestrian delivery bicycle" speed="5.56" length="5.00" shape="762.15,481.94 765.19,477.97"/>
    </edge>
    <edge id=":10555616513_3" function="internal">
        <lane id=":10555616513_3_0" index="0" allow="pedestrian delivery bicycle" speed="3.65" length="1.44" shape="762.15,481.94 763.51,481.45"/>
    </edge>
    <edge id=":10555616513_5" function="internal">
        <lane id=":10555616513_5_0" index="0" allow="pedestrian delivery bicycle" speed="3.65" length="3.23" shape="763.51,481.45 764.39,481.61 764.79,482.40 764.72,483.84"/>
    </edge>
    <edge id=":10572303254_0" function="internal">
        <lane id=":10572303254_0_0" index="0" disallow="pedestrian tram rail_urban rail rail_electric rail_fast ship container cable_car subway aircraft wheelchair scooter drone" speed="8.33" length="2.53" shape="1351.37,854.73 1348.90,854.20"/>
    </edge>
    <edge id=":10572303254_1" function="internal">
        <lane id=":10572303254_1_0" index="0" disallow="pedestrian tram rail_urban rail rail_electric rail_fast ship container cable_car subway aircraft wheelchair scooter drone" speed="8.33" length="2.40" width="5.50" shape="1348.06,851.12 1349.80,849.45"/>
    </edge>
    <edge id=":10572308474_0" function="internal">
        <lane id=":10572308474_0_0" index="0" disallow="pedestrian tram rail_urban rail rail_electric rail_fast ship container cable_car subway aircraft wheelchair scooter drone" speed="8.33" length="2.30" width="5.50" shape="1372.81,846.04 1371.39,847.85"/>
    </edge>
    <edge id=":10572308474_1" function="internal">
        <lane id=":10572308474_1_0" index="0" disallow="pedestrian tram rail_urban rail rail_electric rail_fast ship container cable_car subway aircraft wheelchair scooter drone" speed="8.33" length="2.29" shape="1369.35,842.75 1371.62,843.07"/>
    </edge>
    <edge id=":10651746550_0" function="internal">
        <lane id=":10651746550_0_0" index="0" disallow="pedestrian tram rail_urban rail rail_electric rail_fast ship container cable_car subway aircraft wheelchair scooter drone" speed="13.89" length="8.03" shape="1113.39,422.59 1111.45,421.21 1109.90,420.55 1108.38,419.87 1106.51,418.40"/>
        <lane id=":10651746550_0_1" index="1" disallow="pedestrian tram rail_urban rail rail_electric rail_fast ship container cable_car subway aircraft wheelchair scooter drone" speed="13.89" length="8.03" shape="1115.50,420.18 1113.59,418.84 1112.07,418.20 1110.58,417.54 1108.75,416.11"/>
    </edge>
    <edge id=":10707820130_0" function="internal">
        <lane id=":10707820130_0_0" index="0" allow="pedestrian delivery bicycle" speed="5.56" length="4.77" shape="93.11,707.93 94.18,703.28"/>
    </edge>
    <edge id=":10707820131_0" function="internal">
        <lane id=":10707820131_0_0" index="0" allow="pedestrian delivery bicycle" speed="5.56" length="4.84" shape="91.82,702.33 90.16,706.87"/>
    </edge>
    <edge id=":10707820131_1" function="internal">
        <lane id=":10707820131_1_0" index="0" allow="pedestrian delivery bicycle" speed="3.65" length="1.44" shape="91.82,702.33 90.66,703.18"/>
    </edge>
    <edge id=":10707820131_4" function="internal">
        <lane id=":10707820131_4_0" index="0" allow="pedestrian delivery bicycle" speed="3.65" length="3.23" shape="90.66,703.18 89.77,703.28 89.16,702.63 88.82,701.23"/>
    </edge>
    <edge id=":10707820131_2" function="internal">
        <lane id=":10707820131_2_0" index="0" allow="pedestrian delivery bicycle" speed="5.56" length="4.83" shape="87.16,705.77 88.82,701.23"/>
    </edge>
    <edge id=":10707820131_3" function="internal">
        <lane id=":10707820131_3_0" index="0" allow="pedestrian delivery bicycle" speed="3.65" length="1.44" shape="87.16,705.77 88.32,704.91"/>
    </edge>
    <edge id=":10707820131_5" function="internal">
        <lane id=":10707820131_5_0" index="0" allow="pedestrian delivery bicycle" speed="3.65" length="3.23" shape="88.32,704.91 89.21,704.81 89.83,705.47 90.16,706.87"/>
    </edge>
    <edge id=":10731260254_0" function="internal">
        <lane id=":10731260254_0_0" index="0" allow="subway" speed="19.44" length="5.00" shape="1308.36,286.63 1303.79,284.60"/>
    </edge>
    <edge id=":10753500546_0" function="internal">
        <lane id=":10753500546_0_0" index="0" allow="pedestrian delivery bicycle" speed="5.09" length="5.06" shape="230.76,885.05 229.41,885.19 228.41,885.75 227.79,886.72 227.52,888.10"/>
    </edge>
    <edge id=":10753500546_1" function="internal">
        <lane id=":10753500546_1_0" index="0" disallow="tram rail_urban rail rail_electric rail_fast ship container cable_car subway aircraft wheelchair scooter drone" speed="8.33" length="9.40" shape="230.76,885.05 221.37,884.70"/>
    </edge>
    <edge id=":10753500546_2" function="internal">
        <lane id=":10753500546_2_0" index="0" disallow="tram rail_urban rail rail_electric rail_fast ship container cable_car subway aircraft wheelchair scooter drone" speed="8.33" length="9.40" shape="221.49,881.50 230.88,881.85"/>
    </edge>
    <edge id=":10753500546_3" function="internal">
        <lane id=":10753500546_3_0" index="0" allow="pedestrian delivery bicycle" speed="6.85" length="3.28" shape="221.49,881.50 224.25,882.00 224.64,882.26"/>
    </edge>
    <edge id=":10753500546_7" function="internal">
        <lane id=":10753500546_7_0" index="0" allow="pedestrian delivery bicycle" speed="6.85" length="6.95" shape="224.64,882.26 226.18,883.27 227.27,885.30 227.52,888.10"/>
    </edge>
    <edge id=":10753500546_4" function="internal">
        <lane id=":10753500546_4_0" index="0" allow="pedestrian delivery bicycle" speed="5.02" length="5.02" shape="224.33,887.93 224.20,886.56 223.67,885.56 222.72,884.94 221.37,884.70"/>
    </edge>
    <edge id=":10753500546_5" function="internal">
        <lane id=":10753500546_5_0" index="0" allow="pedestrian delivery bicycle" speed="6.90" length="10.17" shape="224.33,887.93 224.86,885.18 226.13,883.25 228.14,882.14 230.88,881.85"/>
    </edge>
    <edge id=":10753500546_6" function="internal">
        <lane id=":10753500546_6_0" index="0" allow="pedestrian delivery bicycle" speed="3.65" length="4.67" shape="224.33,887.93 225.19,886.77 226.01,886.42 226.79,886.86 227.52,888.10"/>
    </edge>
    <edge id=":10753500547_0" function="internal">
        <lane id=":10753500547_0_0" index="0" allow="pedestrian delivery bicycle" speed="3.65" length="4.67" shape="226.50,907.85 225.64,909.01 224.82,909.37 224.04,908.93 223.31,907.69"/>
    </edge>
    <edge id=":10753500548_0" function="internal">
        <lane id=":10753500548_0_0" index="0" disallow="tram rail_urban rail rail_electric rail_fast ship container cable_car subway aircraft wheelchair scooter drone" speed="8.33" length="9.40" shape="215.07,884.46 205.68,884.12"/>
    </edge>
    <edge id=":10753500548_1" function="internal">
        <lane id=":10753500548_1_0" index="0" allow="pedestrian delivery bicycle" speed="6.59" length="3.52" shape="215.07,884.46 212.31,884.03 211.68,883.68"/>
    </edge>
    <edge id=":10753500548_7" function="internal">
        <lane id=":10753500548_7_0" index="0" allow="pedestrian delivery bicycle" speed="6.59" length="5.85" shape="211.68,883.68 210.38,882.97 209.26,881.28 208.97,878.96"/>
    </edge>
    <edge id=":10753500548_2" function="internal">
        <lane id=":10753500548_2_0" index="0" allow="pedestrian delivery bicycle" speed="4.68" length="4.19" shape="212.17,879.11 212.32,880.01 212.88,880.67 213.83,881.09 215.19,881.27"/>
    </edge>
    <edge id=":10753500548_3" function="internal">
        <lane id=":10753500548_3_0" index="0" allow="pedestrian delivery bicycle" speed="6.62" length="9.31" shape="212.17,879.11 211.67,881.39 210.43,882.98 208.43,883.89 205.68,884.12"/>
    </edge>
    <edge id=":10753500548_4" function="internal">
        <lane id=":10753500548_4_0" index="0" allow="pedestrian delivery bicycle" speed="3.65" length="4.67" shape="212.17,879.11 211.32,880.27 210.50,880.63 209.72,880.19 208.97,878.96"/>
    </edge>
    <edge id=":10753500548_5" function="internal">
        <lane id=":10753500548_5_0" index="0" allow="pedestrian delivery bicycle" speed="4.71" length="4.20" shape="205.80,880.92 207.15,880.84 208.13,880.49 208.74,879.86 208.97,878.96"/>
    </edge>
    <edge id=":10753500548_6" function="internal">
        <lane id=":10753500548_6_0" index="0" disallow="tram rail_urban rail rail_electric rail_fast ship container cable_car subway aircraft wheelchair scooter drone" speed="8.33" length="9.40" shape="205.80,880.92 215.19,881.27"/>
    </edge>
    <edge id=":10753500552_0" function="internal">