<?xml version="1.0" encoding="UTF-8"?>

<!-- generated on 2024-09-22 23:26:01 by Eclipse SUMO polyconvert Version 1.20.0
<configuration xmlns:xsi="http://www.w3.org/2001/XMLSchema-instance" xsi:noNamespaceSchemaLocation="http://sumo.dlr.de/xsd/polyconvertConfiguration.xsd">

    <input>
        <net-file value="osm.net.xml.gz"/>
        <osm-files value="osm_bbox.osm.xml.gz"/>
        <osm.keep-full-type value="true"/>
        <osm.merge-relations value="1"/>
        <type-file value="${SUMO_HOME}/data/typemap/osmPolyconvert.typ.xml"/>
    </input>

    <output>
        <output-file value="osm.poly.xml.gz"/>
    </output>

    <report>
        <verbose value="true"/>
    </report>

</configuration>
-->

<additional xmlns:xsi="http://www.w3.org/2001/XMLSchema-instance" xsi:noNamespaceSchemaLocation="http://sumo.dlr.de/xsd/additional_file.xsd">
    <location netOffset="-390577.46,-5819599.84" convBoundary="-0.19,0.00,1405.73,967.98" origBoundary="13.387383,52.515781,13.407885,52.524219" projParameter="+proj=utm +zone=33 +ellps=WGS84 +datum=WGS84 +units=m +no_defs"/>

    <poly id="100950874" type="building.commercial" color="white" fill="1" layer="0.00" shape="1070.840370,728.156199 1051.081021,720.448021 1047.386371,710.225624 1058.465759,690.996759 1070.099417,696.815015 1071.361323,698.322703 1072.023967,700.355521 1070.840370,728.156199"/>
    <poly id="100950877" type="building.office" color="white" fill="1" layer="0.00" shape="1141.048103,705.950499 1121.353627,747.825175 1115.101735,745.648902 1112.425302,744.016701 1110.821583,741.170124 1109.770629,735.696335 1111.479909,704.033899 1136.880749,704.117572 1141.048103,705.950499"/>
    <poly id="1014046275" type="building.yes" color="255,230,230" fill="1" layer="-1.00" shape="766.659253,49.601448 770.562802,51.139489 778.315366,54.205663 782.041014,55.680893 784.709329,48.967400 781.798756,47.819045 789.964487,27.274412 779.671155,23.207450 771.498427,43.741129 769.327551,42.887947 766.659253,49.601448"/>
    <poly id="1025206459" type="amenity.fountain" color="white" fill="1" layer="0.00" shape="281.589276,241.321324 282.793296,242.652068 284.321101,243.586130 286.050810,244.137354 287.724103,244.289240 289.437456,244.106403 291.101921,243.557445 292.533069,242.590834 293.483328,241.367875 293.982069,239.988061 294.050884,238.506550 293.568388,236.959429 292.663152,235.633152 291.275599,234.595814 289.487147,233.845599 287.445980,233.635144 285.406453,233.802993 283.324543,234.505915 282.038603,235.591697 281.239100,236.878065 280.829806,238.311525 281.022042,239.931879 281.589276,241.321324"/>
    <poly id="1025206459#1" type="landuse.grass" color="white" fill="1" layer="0.00" shape="281.589276,241.321324 282.793296,242.652068 284.321101,243.586130 286.050810,244.137354 287.724103,244.289240 289.437456,244.106403 291.101921,243.557445 292.533069,242.590834 293.483328,241.367875 293.982069,239.988061 294.050884,238.506550 293.568388,236.959429 292.663152,235.633152 291.275599,234.595814 289.487147,233.845599 287.445980,233.635144 285.406453,233.802993 283.324543,234.505915 282.038603,235.591697 281.239100,236.878065 280.829806,238.311525 281.022042,239.931879 281.589276,241.321324"/>
    <poly id="1027050440" type="leisure.park" color="207,245,201" fill="1" layer="-2.00" shape="423.390537,436.602884 390.528815,433.806889 384.910906,498.861800 410.186664,500.891869 411.626007,481.998466 412.808993,482.083411 414.326103,463.633386 421.775361,464.068481 423.390537,436.602884"/>
    <poly id="1043377446" type="natural.scrub" color="140,196,107" fill="1" layer="-4.00" shape="1023.650046,642.750187 1020.676404,648.546724 1039.424260,658.380293 1042.540773,652.291288 1023.650046,642.750187"/>
    <poly id="1043377447" type="natural.scrub" color="140,196,107" fill="1" layer="-4.00" shape="1012.664745,654.577190 1002.117383,675.452395 1025.097266,686.360613 1037.908259,661.340404 1019.141042,651.551780 1016.512206,656.673031 1012.664745,654.577190"/>
    <poly id="1043377448" type="natural.scrub" color="140,196,107" fill="1" layer="-4.00" shape="999.105957,689.350680 995.998598,687.572295 1000.303369,679.053390 1023.340606,689.793415 1011.037516,713.834324 991.823416,704.089085 999.105957,689.350680"/>
    <poly id="1043377453" type="landuse.grass" color="194,194,130" fill="1" layer="-3.00" shape="1158.981597,602.824072 1165.342959,599.812529 1174.764522,595.832018 1181.498111,593.691348 1187.027576,592.656677 1198.307198,591.973424 1190.853234,586.396316 1193.951788,582.555587 1186.872816,576.747645 1186.024324,576.132125 1184.469516,575.498833 1182.796865,575.368887 1181.343872,575.656935 1180.014572,576.320588 1179.234810,576.972095 1178.580116,577.754369 1159.926228,599.498294 1159.221645,601.093988 1158.981597,602.824072"/>
    <poly id="1043377454" type="landuse.grass" color="194,194,130" fill="1" layer="-3.00" shape="1160.454858,606.830818 1185.202353,634.147287 1187.868984,630.727819 1195.563407,621.388637 1199.022596,616.360416 1202.248615,611.838091 1205.090006,604.653647 1206.804994,599.942164 1204.571273,597.766005 1203.322165,596.836635 1201.527357,595.785793 1200.017934,595.362917 1198.186055,595.091826 1193.369148,595.198275 1190.327240,595.766243 1180.264047,597.435239 1163.204084,604.077167 1160.454858,606.830818"/>
    <poly id="1043377455" type="landuse.grass" color="194,194,130" fill="1" layer="-3.00" shape="1188.997099,634.475139 1189.796912,634.424080 1224.947367,601.121425 1222.766306,599.177774 1219.508377,600.106578 1213.600518,600.604322 1207.841741,607.541653 1206.029128,609.985265 1200.493956,619.054160 1194.284946,626.502199 1189.023450,633.517584 1188.997099,634.475139"/>
    <poly id="1044472586" type="landuse.grass" color="194,194,130" fill="1" layer="-3.00" shape="742.264049,895.496977 741.783375,895.552156 741.238683,895.475224 740.736541,895.174795 740.480589,894.345903 739.512038,891.073621 739.289511,890.221732 739.330206,889.608809 739.731192,889.021273 740.587199,888.445893 747.274060,884.836796 754.032713,880.792137 760.488686,876.565035 765.078214,873.258439 765.913260,872.961719 766.810722,873.030827 767.668840,873.468019 768.477254,874.418185 775.534685,889.039086 775.685171,889.703405 775.628929,890.227651 775.357453,891.146140 774.840395,891.702866 774.159535,892.218715 773.401704,892.324550 742.264049,895.496977"/>
    <poly id="104786904" type="landuse.grass" color="194,194,130" fill="1" layer="-3.00" shape="433.452836,368.389038 438.951019,305.540162 417.004023,303.669505 411.754382,365.778459 433.452836,368.389038"/>
    <poly id="104786906" type="building.yes" color="255,230,230" fill="1" layer="-1.00" shape="445.349372,471.978626 508.673616,483.567064 501.668968,493.659827 497.981052,498.448840 493.507803,504.245684 491.601254,506.725043 477.502716,505.803478 466.123173,505.055143 466.723936,497.886702 488.231131,499.555908 489.561583,492.538156 449.702808,485.813569 448.185980,486.893319 446.336913,496.226047 447.367751,497.404895 447.166135,498.410870 446.319699,498.808044 446.098480,503.508833 442.611341,503.285982 439.307384,503.059057 439.708632,500.958130 443.567303,481.576927 445.176148,471.515119 445.349372,471.978626"/>
    <poly id="104786907" type="building.residential" color="255,230,230" fill="1" layer="-1.00" shape="474.122308,453.623263 472.847129,466.481803 433.157191,459.119311 436.255836,426.935970 449.883896,428.057062 451.079904,414.387959 464.387631,415.449455 463.250341,427.793058 455.432541,426.965502 454.147831,440.614322 462.043314,441.273232 461.582180,446.480101 461.117519,452.443728 474.122308,453.623263"/>
    <poly id="104786910" type="building.yes" color="255,230,230" fill="1" layer="-1.00" shape="551.835663,480.415247 564.507105,463.853849 548.411510,451.270191 549.117433,450.353159 548.336929,449.747362 551.411272,445.750964 552.122447,446.291537 553.065942,445.068779 557.022986,448.107684 557.781706,447.122715 574.563162,460.024989 581.822771,450.705606 591.876549,453.798222 571.706364,479.917928 564.218261,489.643002 551.835663,480.415247"/>
    <poly id="104786915" type="building.yes" color="255,230,230" fill="1" layer="-1.00" shape="549.348238,473.560280 535.820559,471.145878 534.703646,477.391060 548.206149,479.895039 549.348238,473.560280"/>
    <poly id="104786916" type="building.office" color="255,230,230" fill="1" layer="-1.00" shape="577.641704,405.820628 572.801520,422.908969 610.882191,433.913699 615.683125,419.942009 613.017959,418.832818 610.463661,416.908849 607.761447,414.743359 604.061664,413.200928 589.750964,409.156881 577.641704,405.820628"/>
    <poly id="1048127662" type="landuse.religious" color="194,194,130" fill="1" layer="-3.00" shape="924.154756,316.956124 874.288235,399.292598 890.086778,408.000348 936.629933,433.653163 940.352980,428.897101 944.606584,431.851849 970.003822,396.148417 982.087094,370.732484 990.171866,350.201104 924.154756,316.956124"/>
    <poly id="104991245" type="building.office" color="255,230,230" fill="1" layer="-1.00" shape="456.767948,788.996051 469.570921,784.805379 471.441383,790.472248 471.879381,790.328972 477.310748,806.866227 478.146284,806.591703 482.288997,819.207316 481.413005,819.493867 486.865902,836.086291 473.119472,840.576104 470.324351,832.092256 469.738097,832.283342 466.825760,823.412636 467.425335,823.210126 463.821482,812.240554 463.275683,812.419613 460.392688,803.648406 461.005834,803.445593 459.585676,799.104026 458.217459,794.961602 458.682345,794.806598 456.767948,788.996051"/>
    <poly id="104991246" type="building.yes" color="255,230,230" fill="1" layer="-1.00" shape="358.496292,833.379802 357.272595,829.634779 374.313684,823.747079 375.593127,827.557630 358.496292,833.379802"/>
    <poly id="1051150923" type="landuse.grass" color="194,194,130" fill="1" layer="-3.00" shape="1310.164175,291.361672 1312.281991,290.435846 1310.812435,285.672300 1308.191021,281.312518 1303.892124,277.223446 1292.522353,269.551611 1275.306912,257.836032 1245.698093,238.215452 1235.583226,231.740061 1234.081311,231.661960 1232.477074,232.175882 1231.313949,232.991632 1223.958335,243.257960 1225.462818,246.218044 1232.283844,251.085906 1238.014954,256.089127 1242.214059,260.881386 1246.760691,266.656327 1250.694772,271.743762 1251.054554,272.358961 1251.925773,271.850106 1255.127669,277.287543 1254.263235,277.796247 1255.703248,279.989960 1259.276210,284.095023 1263.069256,286.793154 1266.668547,289.017080 1271.526768,290.768106 1275.853870,291.829827 1278.476239,291.927710 1284.848970,292.176469 1293.799186,292.334950 1300.992786,292.254036 1305.728170,292.438819 1308.832325,291.914067 1310.164175,291.361672"/>
    <poly id="1051150924" type="landuse.grass" color="194,194,130" fill="1" layer="-3.00" shape="1212.789079,258.805134 1218.495914,263.630828 1221.545957,266.801573 1224.867918,270.912157 1234.100303,273.701533 1242.214072,276.248571 1246.865611,278.783070 1250.563309,280.237008 1251.655663,280.212882 1252.238082,279.843937 1252.181008,279.411222 1249.801521,275.557995 1245.827892,268.679893 1240.963602,262.967607 1235.202531,256.607480 1231.261957,253.378505 1225.150734,248.684133 1223.542534,248.096515 1221.807482,247.912292 1220.490728,247.919126 1212.789079,258.805134"/>
    <poly id="1051150925" type="landuse.grass" color="194,194,130" fill="1" layer="-3.00" shape="1217.746183,245.364777 1209.505433,256.429614 1204.222915,253.297074 1196.502171,250.107140 1189.922545,247.871228 1183.950156,246.389709 1176.482242,245.119291 1170.356889,245.009861 1161.818142,245.966394 1155.439148,247.587365 1147.983385,250.244758 1146.826371,250.414995 1146.226992,250.016524 1145.805394,249.369317 1147.818500,241.557759 1149.926251,231.885804 1150.872971,226.501380 1151.813203,220.516210 1152.678652,213.297532 1153.633241,205.197804 1154.900235,196.490282 1156.181947,196.740140 1158.101542,197.287471 1160.584728,198.456618 1163.508343,200.817810 1172.330255,207.755609 1185.114758,217.688194 1198.820917,228.167952 1213.686629,239.823907 1215.966519,241.932289 1217.746183,245.364777"/>
    <poly id="1051150926" type="landuse.grass" color="194,194,130" fill="1" layer="-3.00" shape="1156.723012,190.507861 1156.182968,188.494578 1156.178687,186.458325 1156.525602,184.647988 1157.261963,182.951446 1158.067945,182.254848 1159.240659,181.872844 1160.218184,181.873493 1163.271362,183.953632 1187.510011,199.519560 1226.508726,225.653428 1227.897586,227.681350 1227.950786,231.318893 1226.129698,234.307930 1221.481895,240.241455 1220.016268,239.962261 1217.252426,239.300027 1216.146302,238.701319 1207.272837,231.575415 1208.012101,230.624365 1203.080458,226.783036 1202.341193,227.734087 1189.049016,217.556743 1189.656023,216.764399 1184.450005,212.795620 1183.842999,213.587965 1170.488058,203.645735 1171.325653,202.536720 1166.140943,198.611999 1165.303103,199.709893 1158.684108,193.546854 1157.252632,191.742444 1156.723012,190.507861"/>
    <poly id="1051150927" type="landuse.grass" color="194,194,130" fill="1" layer="-3.00" shape="1143.832928,361.879443 1157.421239,340.325360 1159.907305,341.627972 1162.520214,342.527187 1166.495868,343.351773 1170.424666,343.899207 1173.889792,344.045172 1177.933390,343.644231 1182.054866,342.774213 1186.210072,341.280309 1190.172999,339.378937 1196.050362,345.780951 1202.999527,355.530947 1204.968536,360.161025 1200.822874,362.700696 1197.214636,364.371671 1192.716965,366.340493 1188.413648,367.581732 1184.069034,368.490059 1178.687742,369.176494 1172.383635,369.571760 1162.849130,368.769893 1155.914580,367.053746 1150.364495,365.017686 1143.832928,361.879443"/>
    <poly id="1051150928" type="landuse.grass" color="194,194,130" fill="1" layer="-3.00" shape="1114.951475,301.171639 1118.069348,298.198392 1121.081807,294.448547 1122.939046,291.870390 1124.806472,290.059811 1126.661225,289.518059 1128.766828,289.883223 1129.963367,290.580060 1141.519007,298.358692 1139.874211,302.256329 1139.232581,306.087276 1139.201492,311.128761 1139.645080,314.613016 1140.414683,318.412764 1141.783757,322.922552 1143.075974,325.798284 1145.160584,329.513322 1147.322473,332.425467 1149.652404,334.955559 1152.901468,337.609993 1139.586523,359.247066 1137.734042,357.741287 1134.949640,355.532821 1130.867476,352.039995 1127.370413,348.300556 1124.040546,343.834128 1120.745132,338.777179 1118.256747,333.379685 1116.074451,327.396789 1114.573229,321.209664 1113.637192,313.875027 1113.642286,307.966164 1114.106142,302.236326 1114.951475,301.171639"/>
    <poly id="1051150930" type="landuse.grass" color="194,194,130" fill="1" layer="-3.00" shape="1057.411094,319.380595 1050.234813,334.661779 1051.224764,341.360942 1052.021356,342.389310 1052.939861,342.791835 1055.402717,342.737342 1057.425868,343.671806 1087.961627,320.796735 1091.984939,317.636529 1099.801121,309.796745 1099.583065,309.145040 1099.013327,308.245178 1097.641058,306.662028 1096.668907,305.982491 1095.246111,305.490963 1093.643078,305.136952 1088.320367,305.098896 1085.012800,305.939861 1082.488682,306.908157 1078.423958,309.423886 1074.500413,313.104893 1071.304499,315.924109 1068.190287,318.140630 1064.607720,319.744369 1061.429113,319.970480 1058.600255,319.743750 1057.411094,319.380595"/>
    <poly id="1051150931" type="natural.scrub" color="140,196,107" fill="1" layer="-4.00" shape="1063.572865,307.026170 1067.251107,300.234855 1068.254234,300.780170 1071.046908,295.688716 1070.043534,295.132279 1071.211509,293.003325 1072.201068,293.548941 1074.922070,288.592607 1073.932511,288.046990 1074.937266,286.210966 1076.242863,286.927633 1079.055171,281.802368 1077.749572,281.085700 1078.773947,279.215860 1079.632874,279.686474 1082.484668,274.504699 1081.625741,274.034085 1082.533792,272.122308 1084.816381,271.281759 1087.897947,272.804843 1090.460524,274.495194 1092.747771,276.013595 1096.765722,279.975171 1095.931744,280.939461 1094.975561,283.130489 1093.563955,284.986636 1092.140154,286.598245 1091.026279,287.490834 1090.214420,287.920512 1088.213887,288.009271 1082.454147,289.082519 1081.023358,290.071141 1078.207884,296.587425 1075.505978,299.952089 1073.491903,303.724387 1072.381973,304.794935 1070.364956,306.286143 1068.920500,306.963499 1067.378492,307.220165 1063.572865,307.026170"/>
    <poly id="1051150932" type="man_made.embankment" color="255,230,230" fill="0" layer="-1.00" shape="1060.827207,312.094333 1063.572865,307.026170 1067.251107,300.234855 1068.254234,300.780170 1071.046908,295.688716 1070.043534,295.132279 1071.211509,293.003325 1072.201068,293.548941 1074.922070,288.592607 1073.932511,288.046990 1074.937266,286.210966 1076.242863,286.927633 1079.055171,281.802368 1077.749572,281.085700 1078.773947,279.215860 1079.632874,279.686474 1082.484668,274.504699 1081.625741,274.034085 1082.533792,272.122308 1084.816381,271.281759 1087.897947,272.804843 1090.460524,274.495194"/>
    <poly id="1051150934" type="landuse.grass" color="194,194,130" fill="1" layer="-3.00" shape="1096.765722,279.975171 1097.890198,281.096443 1099.574678,282.984261 1103.383785,288.552833 1105.476270,293.235783 1108.005085,301.380891 1103.202259,306.127313 1101.306743,305.746386 1099.375725,304.987907 1097.556357,304.060045 1095.067366,303.547588 1091.187495,303.065895 1088.618522,303.233994 1085.352051,303.784732 1081.873985,304.896532 1078.168256,307.070493 1073.168354,311.498605 1071.524360,313.282006 1069.699148,315.158437 1068.017437,316.464187 1066.086063,317.530654 1063.986934,318.378282 1061.216396,318.639875 1059.546501,318.331865 1057.965194,317.732579 1058.218621,316.914657 1060.827207,312.094333 1063.572865,307.026170 1067.378492,307.220165 1068.920500,306.963499 1070.364956,306.286143 1072.381973,304.794935 1073.491903,303.724387 1075.505978,299.952089 1078.207884,296.587425 1081.023358,290.071141 1082.454147,289.082519 1088.213887,288.009271 1090.214420,287.920512 1091.026279,287.490834 1092.140154,286.598245 1093.563955,284.986636 1094.975561,283.130489 1095.931744,280.939461 1096.765722,279.975171"/>
    <poly id="1051150936" type="landuse.flowerbed" color="194,194,130" fill="1" layer="-3.00" shape="1094.736827,274.178059 1091.426238,271.814340 1088.807866,270.670474 1088.229345,268.146180 1089.570542,265.868741 1091.773566,266.955028 1095.236782,267.011961 1097.131410,266.124361 1098.376067,265.006329 1099.108275,264.044290 1099.899477,262.680353 1100.262537,260.680485 1100.075738,259.293668 1099.649399,257.511555 1098.745763,255.940295 1097.235672,254.571617 1096.159381,254.094679 1097.854280,251.542358 1099.983391,251.128060 1102.120046,252.282585 1104.497122,253.565325 1107.697724,255.252703 1107.363707,256.417359 1106.600728,258.136753 1105.639430,261.017803 1104.972916,262.801830 1104.093080,265.069061 1103.045734,267.128572 1101.901824,268.811881 1100.051657,270.789001 1097.256045,272.987327 1094.736827,274.178059"/>
    <poly id="1051150937" type="man_made.embankment" color="255,230,230" fill="0" layer="-1.00" shape="1091.426238,271.814340 1088.807866,270.670474 1088.229345,268.146180 1089.570542,265.868741 1091.773566,266.955028 1095.236782,267.011961 1097.131410,266.124361 1098.376067,265.006329 1099.108275,264.044290 1099.899477,262.680353 1100.262537,260.680485 1100.075738,259.293668 1099.649399,257.511555 1098.745763,255.940295 1097.235672,254.571617 1096.159381,254.094679 1097.854280,251.542358 1099.983391,251.128060 1102.120046,252.282585"/>
    <poly id="1051150938" type="landuse.grass" color="194,194,130" fill="1" layer="-3.00" shape="1107.697724,255.252703 1111.252900,256.398118 1115.858351,257.765117 1119.831623,258.478444 1125.822741,258.657543 1129.027545,258.386386 1133.204203,257.860065 1134.973572,257.754180 1136.304787,259.015548 1133.594525,264.461221 1127.571793,275.132210 1122.625296,283.820953 1119.729314,288.847894 1114.877410,294.752658 1111.879161,298.224003 1110.958439,297.721367 1109.154321,297.483075 1107.780969,291.860631 1105.622750,286.967710 1102.462240,281.874405 1099.099573,278.076373 1094.736827,274.178059 1097.256045,272.987327 1100.051657,270.789001 1101.901824,268.811881 1103.045734,267.128572 1104.093080,265.069061 1104.972916,262.801830 1105.639430,261.017803 1106.600728,258.136753 1107.363707,256.417359 1107.697724,255.252703"/>
    <poly id="1051150939" type="man_made.embankment" color="255,230,230" fill="0" layer="-1.00" shape="1103.255393,249.597982 1099.034391,247.198754 1098.377858,245.443987 1099.284795,243.788173 1100.102525,244.237447 1102.986319,238.965958 1102.168835,238.527806 1103.049864,236.928204 1103.819363,237.345162 1106.762263,231.983348 1105.992517,231.555267 1106.990758,229.730522 1107.753227,230.136508 1110.565602,225.011262 1109.802887,224.594153 1110.716617,222.938191 1111.499933,223.365973 1114.494915,217.902864 1113.711599,217.475082 1114.573020,215.909299 1115.356336,216.337081 1118.585993,210.434809 1117.802676,210.007027 1124.152539,200.619596 1130.810355,191.036198 1143.086350,173.661700"/>
    <poly id="1051150940" type="landuse.grass" color="194,194,130" fill="1" layer="-3.00" shape="1148.373017,174.212486 1152.097375,176.867543 1152.526501,177.547967 1150.678224,190.975307 1146.515815,218.864028 1144.374212,234.067143 1138.852510,252.972580 1133.359496,254.752035 1128.778695,255.420822 1124.592936,255.535628 1119.762269,255.341997 1115.813039,254.795053 1109.647357,252.861667 1106.156235,251.236351 1103.255393,249.597982 1099.034391,247.198754 1098.377858,245.443987 1099.284795,243.788173 1100.102525,244.237447 1102.986319,238.965958 1102.168835,238.527806 1103.049864,236.928204 1103.819363,237.345162 1106.762263,231.983348 1105.992517,231.555267 1106.990758,229.730522 1107.753227,230.136508 1110.565602,225.011262 1109.802887,224.594153 1110.716617,222.938191 1111.499933,223.365973 1114.494915,217.902864 1113.711599,217.475082 1114.573020,215.909299 1115.356336,216.337081 1118.585993,210.434809 1117.802676,210.007027 1124.152539,200.619596 1130.810355,191.036198 1143.086350,173.661700 1146.868581,176.170815 1148.373017,174.212486"/>
    <poly id="1051153671" type="landuse.grass" color="194,194,130" fill="1" layer="-3.00" shape="1281.059625,324.385447 1276.091264,317.952135 1271.285203,310.569399 1267.784630,304.515404 1263.939468,297.612197 1260.843327,293.274049 1254.730150,286.643487 1248.942298,282.142242 1241.730491,278.940999 1236.209509,276.381200 1230.250154,274.565511 1227.648280,274.166756 1229.917017,277.922271 1233.103927,284.216849 1234.563733,288.535487 1235.995111,293.411132 1237.871329,302.138222 1238.345159,307.302080 1238.481824,315.333173 1237.063799,323.354098 1235.837721,327.465002 1241.229513,328.480919 1250.253901,328.926997 1261.071391,328.498924 1268.469187,327.523244 1275.847830,325.680048 1281.059625,324.385447"/>
    <poly id="1051153672" type="natural.scrub" color="140,196,107" fill="1" layer="-4.00" shape="1280.360604,302.257004 1280.500650,305.525420 1281.107253,307.481607 1282.950494,309.799955 1284.800890,310.905241 1287.175004,311.442585 1290.238436,310.918719 1292.699871,309.262006 1294.100093,307.194747 1294.718568,304.154393 1294.483349,302.724128 1294.414714,300.845083 1295.395095,301.591242 1297.317227,304.408595 1297.707668,305.490478 1297.946839,308.022285 1297.536456,310.034308 1296.399857,312.051236 1294.524858,313.828532 1290.925393,315.899834 1287.614767,316.295626 1286.522420,316.319743 1284.186807,315.681401 1280.184386,313.644406 1278.974950,312.669628 1277.667152,310.929220 1277.067487,308.672435 1277.552957,305.757418 1278.386381,304.459345 1280.360604,302.257004"/>
    <poly id="1051153673" type="landuse.grass" color="194,194,130" fill="1" layer="-3.00" shape="1294.414714,300.845083 1294.316302,298.232276 1294.268447,296.987044 1295.014412,295.724287 1296.717615,294.774225 1297.674270,294.753106 1307.850340,295.707991 1311.424317,296.786367 1311.624558,298.784911 1310.878589,300.047665 1305.987818,306.353682 1300.162391,312.446660 1294.267140,317.528576 1287.750779,321.533711 1283.432631,323.643142 1274.593681,311.920673 1271.153470,306.755549 1269.192641,303.416064 1264.712287,295.414126 1264.290554,292.608162 1264.645604,291.164864 1266.570306,291.945802 1270.539870,293.416006 1273.654365,294.281950 1276.623585,294.717129 1278.331970,294.924214 1279.814276,295.959732 1280.676709,296.897661 1280.360604,302.257004 1278.386381,304.459345 1277.552957,305.757418 1277.067487,308.672435 1277.667152,310.929220 1278.974950,312.669628 1280.184386,313.644406 1284.186807,315.681401 1286.522420,316.319743 1287.614767,316.295626 1290.925393,315.899834 1294.524858,313.828532 1296.399857,312.051236 1297.536456,310.034308 1297.946839,308.022285 1297.707668,305.490478 1297.317227,304.408595 1295.395095,301.591242 1294.414714,300.845083"/>
    <poly id="1051153674" type="landuse.grass" color="194,194,130" fill="1" layer="-3.00" shape="1175.906601,397.212712 1179.531720,395.385561 1186.536034,397.189218 1186.247291,398.252720 1192.515906,399.939114 1192.804405,398.864490 1198.354091,400.577906 1203.685970,403.186348 1209.717741,406.135413 1212.090633,407.540698 1211.710970,410.019410 1210.386909,413.687385 1207.818691,420.031215 1205.504907,425.601621 1202.828305,430.111798 1201.161393,433.008420 1199.384849,435.551383 1195.918446,439.645040 1193.104612,439.173097 1191.760381,437.934258 1189.708063,429.533775 1187.027379,419.422403 1185.724791,414.232352 1184.017137,410.063864 1182.100335,406.567654 1180.090021,403.140277 1177.759842,399.675459 1175.906601,397.212712"/>
    <poly id="1051153675" type="landuse.grass" color="194,194,130" fill="1" layer="-3.00" shape="1160.814227,373.443950 1168.007861,374.597997 1174.586643,374.652886 1180.585678,374.275493 1186.532946,373.398510 1191.104056,372.296011 1196.611901,370.271482 1197.041593,371.285725 1202.704656,368.912818 1202.268180,367.898725 1208.660267,364.419213 1209.783544,368.867683 1211.203025,374.433495 1212.085340,379.343520 1212.909390,384.688808 1213.273801,390.122145 1213.155370,395.822084 1212.387214,404.373912 1202.365343,399.944019 1194.474566,397.036042 1186.128322,394.405205 1177.225825,392.098248 1174.191214,390.852263 1170.843229,388.633979 1168.743424,387.300570 1166.302366,384.962095 1164.353538,382.167637 1162.419654,379.128042 1161.070871,375.841835 1160.814227,373.443950"/>
    <poly id="1051153676" type="landuse.grass" color="194,194,130" fill="1" layer="-3.00" shape="1141.020650,366.392653 1135.243304,374.955098 1135.240163,375.734099 1135.846225,377.356455 1136.758234,378.693856 1137.849885,379.559927 1145.425781,382.652818 1150.044382,384.620444 1157.239777,386.775919 1165.628726,389.494785 1165.226215,387.867927 1164.537127,386.481082 1163.508558,385.090614 1161.915189,383.022721 1160.347774,380.286599 1158.440236,376.289451 1155.756043,372.164813 1148.285797,369.859630 1145.341479,368.400241 1142.091748,366.636035 1141.020650,366.392653"/>
    <poly id="1051153677" type="landuse.grass" color="194,194,130" fill="1" layer="-3.00" shape="1124.648496,395.886677 1124.215289,393.793142 1124.141235,392.593000 1130.754314,381.920074 1132.332973,381.173003 1133.781942,381.007435 1135.563953,381.168331 1139.910682,383.119704 1139.366589,384.300130 1144.886769,386.826453 1145.424324,385.657299 1154.572772,388.648672 1154.215942,389.702554 1160.111033,391.686481 1160.467863,390.632600 1164.233599,392.096095 1167.571997,393.880611 1170.455330,395.652932 1172.221061,397.227405 1174.987380,399.848011 1178.209642,403.749342 1180.011011,406.936530 1181.537305,409.962883 1182.711484,413.642420 1183.802966,417.880163 1185.066666,423.460538 1185.975206,427.713452 1187.566920,434.621889 1188.060468,437.604303 1188.009383,439.285697 1186.955948,441.990726 1185.005229,443.102085 1181.267219,441.048201 1177.688299,437.900300 1124.648496,395.886677"/>
    <poly id="1051153678" type="landuse.grass" color="194,194,130" fill="1" layer="-3.00" shape="1117.260141,390.530771 1118.593377,390.657074 1119.922823,390.304976 1120.913426,389.671053 1121.684113,388.608018 1127.312937,379.470204 1124.559253,375.580799 1121.140927,373.252827 1120.501505,374.112663 1115.160878,370.191448 1115.800301,369.331611 1101.674195,360.419240 1101.156653,361.265256 1095.783018,358.001318 1096.300560,357.155302 1080.840670,349.630056 1080.405039,350.496517 1074.331180,347.492899 1074.760026,346.626587 1068.743070,344.968155 1064.116521,344.792322 1061.128675,346.583204 1060.565930,350.601589 1073.640057,358.902843 1117.260141,390.530771"/>
    <poly id="1051153679" type="landuse.grass" color="194,194,130" fill="1" layer="-3.00" shape="1070.036537,339.920995 1072.069350,342.212818 1074.350913,343.475401 1085.245259,348.364227 1098.674200,355.522685 1112.553412,363.706086 1123.816783,371.780453 1127.392530,373.860139 1128.690372,373.920463 1130.781038,373.918746 1137.339836,363.859049 1133.115650,361.003634 1128.655802,357.007292 1123.638110,351.420915 1119.657443,346.379119 1116.661046,341.337815 1114.353548,337.060210 1112.497571,332.327517 1110.948727,327.977498 1109.326932,320.635772 1108.510387,315.635286 1108.685605,311.280524 1106.441999,310.506700 1100.536280,316.334636 1089.966159,325.492751 1074.231759,337.168692 1070.036537,339.920995"/>
    <poly id="1054177698" type="leisure.playground" color="207,245,201" fill="1" layer="-2.00" shape="550.786568,776.411542 546.074980,777.584546 541.144057,782.935299 538.960608,788.525413 541.400037,795.058739 542.961824,796.615267 547.169487,797.200503 553.867859,799.299367 557.363079,800.200896 560.507333,800.275657 563.543012,799.740813 566.289278,798.400086 569.035655,796.758912 571.553184,794.288254 573.760981,791.624183 575.070748,787.644758 576.276530,783.567496 575.077955,778.197231 569.214638,773.665077 561.151697,772.776056 550.786568,776.411542"/>
    <poly id="105733615" type="building.apartments" color="255,230,230" fill="1" layer="-1.00" shape="81.522482,855.925158 82.956913,837.788391 95.877248,838.568180 94.172163,857.656836 81.522482,855.925158"/>