<?xml version="1.0" encoding="UTF-8"?>

<!-- generated on 2024-09-29 17:05:29.831221 by osmWebWizard.py UNKNOWN
<configuration>
    <net-file value="/opt/homebrew/Cellar/sumo/1.20.0/share/sumo/tools/2024-09-29-17-05-26/osm.net.xml.gz"/>
    <output-trip-file value="/opt/homebrew/Cellar/sumo/1.20.0/share/sumo/tools/2024-09-29-17-05-26/osm.passenger.trips.xml"/>
    <route-file value="/opt/homebrew/Cellar/sumo/1.20.0/share/sumo/tools/2024-09-29-17-05-26/osm.passenger.rou.xml"/>
    <prefix value="veh"/>
    <trip-attributes value="departLane=&quot;best&quot;"/>
    <fringe-start-attributes value="departSpeed=&quot;max&quot;"/>
    <vehicle-class value="passenger"/>
    <lanes value="True"/>
    <fringe-factor value="5"/>
    <allow-fringe.min-length value="1000.0"/>
    <via-edge-types value="highway.motorway,highway.motorway_link,highway.trunk_link,highway.primary_link,highway.secondary_link,highway.tertiary_link"/>
    <min-distance value="300.0"/>
    <min-distance.fringe value="10.0"/>
    <remove-loops value="True"/>
    <validate value="True"/>
    <insertion-density value="12.0"/>
</configuration>
-->

<!-- generated on 2024-09-29 17:05:29 by Eclipse SUMO duarouter Version 1.20.0
<configuration xmlns:xsi="http://www.w3.org/2001/XMLSchema-instance" xsi:noNamespaceSchemaLocation="http://sumo.dlr.de/xsd/duarouterConfiguration.xsd">

    <input>
        <net-file value="/opt/homebrew/Cellar/sumo/1.20.0/share/sumo/tools/2024-09-29-17-05-26/osm.net.xml.gz"/>
        <route-files value="/opt/homebrew/Cellar/sumo/1.20.0/share/sumo/tools/2024-09-29-17-05-26/osm.passenger.trips.xml"/>
    </input>

    <output>
        <output-file value="/opt/homebrew/Cellar/sumo/1.20.0/share/sumo/tools/2024-09-29-17-05-26/osm.passenger.trips.xml.tmp"/>
        <alternatives-output value="NUL"/>
        <write-trips value="true"/>
    </output>

    <processing>
        <remove-loops value="true"/>
    </processing>

    <time>
        <begin value="0.0"/>
        <end value="3600.0"/>
    </time>

    <report>
        <no-warnings value="true"/>
        <ignore-errors value="true"/>
        <no-step-log value="true"/>
    </report>

</configuration>
-->

<routes xmlns:xsi="http://www.w3.org/2001/XMLSchema-instance" xsi:noNamespaceSchemaLocation="http://sumo.dlr.de/xsd/routes_file.xsd">
    <vType id="veh_passenger" vClass="passenger"/>
    <trip id="veh0" type="veh_passenger" depart="0.00" departLane="best" departSpeed="max" from="-146183131#1" to="-23916073#0"/>
    <trip id="veh1" type="veh_passenger" depart="11.55" departLane="best" from="146165259#4" to="294805814#2"/>
    <trip id="veh2" type="veh_passenger" depart="23.10" departLane="best" from="37656206#4" to="137310463#4"/>
    <trip id="veh3" type="veh_passenger" depart="34.65" departLane="best" from="-622140347" to="116297053#5"/>
    <trip id="veh4" type="veh_passenger" depart="46.20" departLane="best" departSpeed="max" from="-146167895" to="-146165259#1"/>
    <trip id="veh5" type="veh_passenger" depart="57.75" departLane="best" from="-116297063#0" to="146183131#0"/>
    <trip id="veh6" type="veh_passenger" depart="69.30" departLane="best" departSpeed="max" from="-146167895" to="146167894"/>
    <trip id="veh7" type="veh_passenger" depart="80.86" departLane="best" departSpeed="max" from="23916073#0" to="-116297053#0"/>
    <trip id="veh8" type="veh_passenger" depart="92.41" departLane="best" departSpeed="max" from="23916073#0" to="295053247"/>
    <trip id="veh9" type="veh_passenger" depart="103.96" departLane="best" departSpeed="max" from="-295114632" to="-146167893#0"/>
    <trip id="veh10" type="veh_passenger" depart="115.51" departLane="best" from="-90972134#0" to="90972136#1"/>
    <trip id="veh11" type="veh_passenger" depart="127.06" departLane="best" from="294805814#0" to="146167895"/>
    <trip id="veh12" type="veh_passenger" depart="138.61" departLane="best" departSpeed="max" from="23916073#0" to="295114632"/>
    <trip id="veh13" type="veh_passenger" depart="150.16" departLane="best" from="37656206#6" to="146165260#3"/>
    <trip id="veh14" type="veh_passenger" depart="161.71" departLane="best" departSpeed="max" from="23916073#0" to="-146167897#0"/>
    <trip id="veh15" type="veh_passenger" depart="173.26" departLane="best" departSpeed="max" from="-146167895" to="-37656206#7"/>
    <trip id="veh16" type="veh_passenger" depart="184.81" departLane="best" from="-137310463#2" to="-23916073#0"/>
    <trip id="veh17" type="veh_passenger" depart="196.36" departLane="best" from="-137310463#8" to="-37656206#3"/>
    <trip id="veh18" type="veh_passenger" depart="207.91" departLane="best" from="-137310463#12" to="90972171#1"/>
    <trip id="veh19" type="veh_passenger" depart="219.46" departLane="best" from="-37656206#2" to="-23916073#0"/>
    <trip id="veh20" type="veh_passenger" depart="231.02" departLane="best" departSpeed="max" from="-146183131#1" to="90972134#1"/>
    <trip id="veh21" type="veh_passenger" depart="242.57" departLane="best" departSpeed="max" from="-146165260#3" to="295114632"/>
    <trip id="veh22" type="veh_passenger" depart="254.12" departLane="best" departSpeed="max" from="-146165260#3" to="-116297053#4"/>
    <trip id="veh23" type="veh_passenger" depart="265.67" departLane="best" from="-90972168#0" to="-146181956#4"/>
    <trip id="veh24" type="veh_passenger" depart="277.22" departLane="best" departSpeed="max" from="-90972168#1" to="-294805814#5"/>
    <trip id="veh25" type="veh_passenger" depart="288.77" departLane="best" from="23916073#1" to="47733014#1"/>
    <trip id="veh26" type="veh_passenger" depart="300.32" departLane="best" departSpeed="max" from="-146167895" to="-116297053#6"/>
    <trip id="veh27" type="veh_passenger" depart="311.87" departLane="best" departSpeed="max" from="-295053247" to="37656206#1"/>
    <trip id="veh28" type="veh_passenger" depart="323.42" departLane="best" departSpeed="max" from="-146167894" to="90972134#1"/>
    <trip id="veh29" type="veh_passenger" depart="334.97" departLane="best" from="37656206#0" to="90972130#0"/>
    <trip id="veh30" type="veh_passenger" depart="346.52" departLane="best" from="-137310463#3" to="116297063#1"/>
    <trip id="veh31" type="veh_passenger" depart="358.07" departLane="best" from="-47733014#1" to="-137310463#5"/>
    <trip id="veh32" type="veh_passenger" depart="369.62" departLane="best" departSpeed="max" from="-146183131#1" to="-294805814#1"/>
    <trip id="veh33" type="veh_passenger" depart="381.18" departLane="best" departSpeed="max" from="-90972168#1" to="-37656206#0"/>
    <trip id="veh34" type="veh_passenger" depart="392.73" departLane="best" departSpeed="max" from="116297053#0" to="90972130#4"/>
    <trip id="veh35" type="veh_passenger" depart="404.28" departLane="best" from="-47733014#2" to="-23916073#0"/>
    <trip id="veh36" type="veh_passenger" depart="415.83" departLane="best" from="-90972171#2" to="-146165259#1"/>
    <trip id="veh37" type="veh_passenger" depart="427.38" departLane="best" from="-137310463#5" to="-137188385"/>
    <trip id="veh38" type="veh_passenger" depart="438.93" departLane="best" from="-137310465" to="-146181956#0"/>
    <trip id="veh39" type="veh_passenger" depart="450.48" departLane="best" from="146181956#3" to="137310463#10"/>
    <trip id="veh40" type="veh_passenger" depart="462.03" departLane="best" from="-90972136#2" to="-90972130#0"/>
    <trip id="veh41" type="veh_passenger" depart="473.58" departLane="best" from="116297053#5" to="295114632"/>
    <trip id="veh42" type="veh_passenger" depart="485.13" departLane="best" from="-137310465" to="-146165259#5"/>
    <trip id="veh43" type="veh_passenger" depart="496.68" departLane="best" departSpeed="max" from="-146183131#1" to="-146181956#4"/>
    <trip id="veh44" type="veh_passenger" depart="508.23" departLane="best" from="137310465" to="137310463#14"/>
    <trip id="veh45" type="veh_passenger" depart="519.79" departLane="best" departSpeed="max" from="-90972119" to="90972136#2"/>
    <trip id="veh46" type="veh_passenger" depart="531.34" departLane="best" departSpeed="max" from="-90972134#2" to="-146167897#1"/>
    <trip id="veh47" type="veh_passenger" depart="542.89" departLane="best" from="-47733014#0" to="90972130#1"/>
    <trip id="veh48" type="veh_passenger" depart="554.44" departLane="best" from="-294805814#5" to="-146181956#3"/>
    <trip id="veh49" type="veh_passenger" depart="565.99" departLane="best" from="116297053#6" to="146165260#2"/>
    <trip id="veh50" type="veh_passenger" depart="577.54" departLane="best" from="146167893#1" to="-146165259#5"/>
    <trip id="veh51" type="veh_passenger" depart="589.09" departLane="best" from="146167897#1" to="-146165259#4"/>
    <trip id="veh52" type="veh_passenger" depart="600.64" departLane="best" from="116297053#1" to="90972130#2"/>
    <trip id="veh53" type="veh_passenger" depart="612.19" departLane="best" from="138222876" to="90972134#1"/>
    <trip id="veh54" type="veh_passenger" depart="623.74" departLane="best" from="37656206#1" to="90972119"/>
    <trip id="veh55" type="veh_passenger" depart="635.29" departLane="best" departSpeed="max" from="-295053247" to="137310463#10"/>
    <trip id="veh56" type="veh_passenger" depart="646.84" departLane="best" from="37656206#1" to="90972136#0"/>
    <trip id="veh58" type="veh_passenger" depart="669.95" departLane="best" from="-137310463#13" to="-37656206#7"/>
    <trip id="veh59" type="veh_passenger" depart="681.50" departLane="best" from="146167893#2" to="-146165259#1"/>
    <trip id="veh60" type="veh_passenger" depart="693.05" departLane="best" from="-90972130#3" to="146165260#3"/>
    <trip id="veh61" type="veh_passenger" depart="704.60" departLane="best" departSpeed="max" from="-146183131#1" to="-90972130#1"/>
    <trip id="veh62" type="veh_passenger" depart="716.15" departLane="best" from="-622140347" to="-23916073#0"/>
    <trip id="veh63" type="veh_passenger" depart="727.70" departLane="best" from="-90972164#1" to="295114632"/>
    <trip id="veh64" type="veh_passenger" depart="739.25" departLane="best" departSpeed="max" from="-146167894" to="90972123"/>
    <trip id="veh65" type="veh_passenger" depart="750.80" departLane="best" from="-90972171#1" to="146183131#1"/>
    <trip id="veh66" type="veh_passenger" depart="762.35" departLane="best" departSpeed="max" from="-706624008" to="-146165259#2"/>
    <trip id="veh68" type="veh_passenger" depart="785.45" departLane="best" departSpeed="max" from="-295114624" to="146167894"/>
    <trip id="veh69" type="veh_passenger" depart="797.00" departLane="best" departSpeed="max" from="-146167895" to="-23916073#0"/>
    <trip id="veh70" type="veh_passenger" depart="808.55" departLane="best" from="-137310463#13" to="-146181956#1"/>
    <trip id="veh71" type="veh_passenger" depart="820.11" departLane="best" departSpeed="max" from="-146167895" to="90972130#4"/>
    <trip id="veh72" type="veh_passenger" depart="831.66" departLane="best" from="294805814#5" to="137310463#14"/>
    <trip id="veh73" type="veh_passenger" depart="843.21" departLane="best" departSpeed="max" from="-146167895" to="-146165259#2"/>
    <trip id="veh74" type="veh_passenger" depart="854.76" departLane="best" from="-90972130#1" to="146167893#1"/>
    <trip id="veh75" type="veh_passenger" depart="866.31" departLane="best" from="-90972130#2" to="47733014#3"/>
    <trip id="veh76" type="veh_passenger" depart="877.86" departLane="best" departSpeed="max" from="23916073#0" to="146181956#2"/>
    <trip id="veh77" type="veh_passenger" depart="889.41" departLane="best" from="137310463#6" to="137310463#12"/>
    <trip id="veh78" type="veh_passenger" depart="900.96" departLane="best" from="-622140347" to="-137310463#8"/>
    <trip id="veh79" type="veh_passenger" depart="912.51" departLane="best" from="146165259#3" to="294805814#0"/>
    <trip id="veh80" type="veh_passenger" depart="924.06" departLane="best" from="-146183131#0" to="137310463#7"/>
    <trip id="veh81" type="veh_passenger" depart="935.61" departLane="best" from="-47733014#2" to="90972136#2"/>
    <trip id="veh82" type="veh_passenger" depart="947.16" departLane="best" from="-146167893#3" to="-137310463#2"/>
    <trip id="veh83" type="veh_passenger" depart="958.71" departLane="best" from="-622140347" to="-37656206#3"/>
    <trip id="veh84" type="veh_passenger" depart="970.27" departLane="best" from="-146181956#3" to="90972134#0"/>
    <trip id="veh85" type="veh_passenger" depart="981.82" departLane="best" departSpeed="max" from="-90972119" to="90972130#0"/>
    <trip id="veh86" type="veh_passenger" depart="993.37" departLane="best" from="-90972168#0" to="-137310463#0"/>
    <trip id="veh87" type="veh_passenger" depart="1004.92" departLane="best" from="-90972171#2" to="90972119"/>
    <trip id="veh88" type="veh_passenger" depart="1016.47" departLane="best" from="-90972136#2" to="90972134#1"/>
    <trip id="veh89" type="veh_passenger" depart="1028.02" departLane="best" from="294805814#0" to="-146167893#3"/>
    <trip id="veh90" type="veh_passenger" depart="1039.57" departLane="best" departSpeed="max" from="-90972130#4" to="-23916073#0"/>
    <trip id="veh91" type="veh_passenger" depart="1051.12" departLane="best" from="-47733014#2" to="-137310463#10"/>
    <trip id="veh92" type="veh_passenger" depart="1062.67" departLane="best" from="37656206#6" to="90972168#1"/>
    <trip id="veh93" type="veh_passenger" depart="1074.22" departLane="best" departSpeed="max" from="-146183131#1" to="47733014#3"/>
    <trip id="veh94" type="veh_passenger" depart="1085.77" departLane="best" departSpeed="max" from="-90972119" to="-137310463#10"/>
    <trip id="veh95" type="veh_passenger" depart="1097.32" departLane="best" departSpeed="max" from="-90972168#1" to="295114632"/>
    <trip id="veh96" type="veh_passenger" depart="1108.87" departLane="best" from="-146165260#2" to="37656206#9"/>
    <trip id="veh97" type="veh_passenger" depart="1120.43" departLane="best" from="-90972136#2" to="146167893#3"/>
    <trip id="veh98" type="veh_passenger" depart="1131.98" departLane="best" from="-90972165#1" to="-37656206#2"/>
    <trip id="veh99" type="veh_passenger" depart="1143.53" departLane="best" departSpeed="max" from="-90972134#2" to="90972122#1"/>
    <trip id="veh100" type="veh_passenger" depart="1155.08" departLane="best" from="-146165260#2" to="90972164#0"/>
    <trip id="veh101" type="veh_passenger" depart="1166.63" departLane="best" from="-137310463#2" to="-146181956#1"/>
    <trip id="veh102" type="veh_passenger" depart="1178.18" departLane="best" from="116297053#1" to="-294805814#2"/>
    <trip id="veh104" type="veh_passenger" depart="1201.28" departLane="best" from="116297053#1" to="-146167897#0"/>
    <trip id="veh105" type="veh_passenger" depart="1212.83" departLane="best" departSpeed="max" from="-47733014#3" to="146167894"/>
    <trip id="veh106" type="veh_passenger" depart="1224.38" departLane="best" from="-90972136#1" to="90972134#1"/>
    <trip id="veh107" type="veh_passenger" depart="1235.93" departLane="best" departSpeed="max" from="-146167894" to="295114632"/>
    <trip id="veh108" type="veh_passenger" depart="1247.48" departLane="best" from="146181956#0" to="116297063#1"/>
    <trip id="veh109" type="veh_passenger" depart="1259.04" departLane="best" from="137310463#7" to="47733014#0"/>
    <trip id="veh110" type="veh_passenger" depart="1270.59" departLane="best" departSpeed="max" from="-295053247" to="37656206#3"/>
    <trip id="veh111" type="veh_passenger" depart="1282.14" departLane="best" from="-137310463#14" to="-137310463#5"/>
    <trip id="veh112" type="veh_passenger" depart="1293.69" departLane="best" from="-137310463#14" to="-23916073#0"/>
    <trip id="veh113" type="veh_passenger" depart="1305.24" departLane="best" departSpeed="max" from="-146183131#1" to="90972134#1"/>
    <trip id="veh114" type="veh_passenger" depart="1316.79" departLane="best" from="37656206#1" to="90972130#2"/>
    <trip id="veh115" type="veh_passenger" depart="1328.34" departLane="best" from="-37656206#2" to="-146167893#0"/>
    <trip id="veh116" type="veh_passenger" depart="1339.89" departLane="best" departSpeed="max" from="23916073#0" to="295053247"/>
    <trip id="veh117" type="veh_passenger" depart="1351.44" departLane="best" from="-116297063#0" to="90972168#1"/>
    <trip id="veh118" type="veh_passenger" depart="1362.99" departLane="best" from="137310463#2" to="-116297053#0"/>
    <trip id="veh119" type="veh_passenger" depart="1374.54" departLane="best" departSpeed="max" from="23916073#0" to="47733014#0"/>
    <trip id="veh120" type="veh_passenger" depart="1386.09" departLane="best" from="-137310463#5" to="90972134#1"/>
    <trip id="veh121" type="veh_passenger" depart="1397.64" departLane="best" from="146165259#2" to="-137310466"/>
    <trip id="veh122" type="veh_passenger" depart="1409.20" departLane="best" from="137310463#9" to="146165260#3"/>
    <trip id="veh123" type="veh_passenger" depart="1420.75" departLane="best" departSpeed="max" from="-146183131#1" to="146167895"/>
    <trip id="veh124" type="veh_passenger" depart="1432.30" departLane="best" from="146165259#1" to="-23916073#0"/>
    <trip id="veh125" type="veh_passenger" depart="1443.85" departLane="best" from="-137310463#12" to="-37656206#0"/>
    <trip id="veh126" type="veh_passenger" depart="1455.40" departLane="best" from="294805814#0" to="137310463#6"/>
    <trip id="veh127" type="veh_passenger" depart="1466.95" departLane="best" from="-622140347" to="-37656206#3"/>
    <trip id="veh128" type="veh_passenger" depart="1478.50" departLane="best" from="-137310463#13" to="-37656206#0"/>
    <trip id="veh129" type="veh_passenger" depart="1490.05" departLane="best" from="146165259#5" to="146165260#3"/>
    <trip id="veh130" type="veh_passenger" depart="1501.60" departLane="best" from="-137310463#14" to="90972130#3"/>
    <trip id="veh131" type="veh_passenger" depart="1513.15" departLane="best" from="-37656206#8" to="146165260#2"/>
    <trip id="veh132" type="veh_passenger" depart="1524.70" departLane="best" departSpeed="max" from="23916073#0" to="-146167893#4"/>
    <trip id="veh133" type="veh_passenger" depart="1536.25" departLane="best" from="-146165260#0" to="-146165259#1"/>
    <trip id="veh134" type="veh_passenger" depart="1547.80" departLane="best" departSpeed="max" from="-295053247" to="90972130#4"/>
    <trip id="veh135" type="veh_passenger" depart="1559.36" departLane="best" from="146181956#4" to="90972130#0"/>
    <trip id="veh136" type="veh_passenger" depart="1570.91" departLane="best" from="-37656206#6" to="-23916073#0"/>
    <trip id="veh137" type="veh_passenger" depart="1582.46" departLane="best" from="146181956#3" to="137310463#9"/>
    <trip id="veh138" type="veh_passenger" depart="1594.01" departLane="best" from="146167897#1" to="90972130#3"/>
    <trip id="veh139" type="veh_passenger" depart="1605.56" departLane="best" departSpeed="max" from="-47733014#3" to="-146167897#0"/>
    <trip id="veh140" type="veh_passenger" depart="1617.11" departLane="best" from="-146165260#1" to="90972134#1"/>
    <trip id="veh141" type="veh_passenger" depart="1628.66" departLane="best" from="294832782" to="90972168#1"/>
    <trip id="veh142" type="veh_passenger" depart="1640.21" departLane="best" departSpeed="max" from="23916073#0" to="90972130#3"/>
    <trip id="veh143" type="veh_passenger" depart="1651.76" departLane="best" from="-116297058" to="-37656206#0"/>
    <trip id="veh144" type="veh_passenger" depart="1663.31" departLane="best" departSpeed="max" from="-295114624" to="90972134#1"/>
    <trip id="veh145" type="veh_passenger" depart="1674.86" departLane="best" departSpeed="max" from="23916073#0" to="90972130#0"/>
    <trip id="veh146" type="veh_passenger" depart="1686.41" departLane="best" departSpeed="max" from="23916073#0" to="37656206#1"/>
    <trip id="veh147" type="veh_passenger" depart="1697.96" departLane="best" from="146181956#1" to="137310465"/>
    <trip id="veh148" type="veh_passenger" depart="1709.52" departLane="best" from="37618419#1" to="90972123"/>
    <trip id="veh149" type="veh_passenger" depart="1721.07" departLane="best" departSpeed="max" from="-146167895" to="706624008"/>
    <trip id="veh150" type="veh_passenger" depart="1732.62" departLane="best" from="-146181956#4" to="-23916073#0"/>
    <trip id="veh151" type="veh_passenger" depart="1744.17" departLane="best" from="-116297058" to="146181956#3"/>
    <trip id="veh152" type="veh_passenger" depart="1755.72" departLane="best" departSpeed="max" from="-295114624" to="-90972130#0"/>
    <trip id="veh153" type="veh_passenger" depart="1767.27" departLane="best" from="-90972136#1" to="-37656206#3"/>
    <trip id="veh154" type="veh_passenger" depart="1778.82" departLane="best" from="-137310463#14" to="116297063#1"/>
    <trip id="veh155" type="veh_passenger" depart="1790.37" departLane="best" from="90972164#1" to="-146165259#5"/>
    <trip id="veh156" type="veh_passenger" depart="1801.92" departLane="best" from="-90972136#2" to="-146167897#1"/>
    <trip id="veh157" type="veh_passenger" depart="1813.47" departLane="best" from="-90972136#0" to="-37656206#1"/>
    <trip id="veh158" type="veh_passenger" depart="1825.02" departLane="best" from="137310465" to="137310463#13"/>
    <trip id="veh159" type="veh_passenger" depart="1836.57" departLane="best" from="146165259#3" to="-90972123"/>
    <trip id="veh160" type="veh_passenger" depart="1848.12" departLane="best" from="116297053#5" to="-146165259#1"/>
    <trip id="veh161" type="veh_passenger" depart="1859.68" departLane="best" from="-37656206#8" to="146167893#3"/>
    <trip id="veh162" type="veh_passenger" depart="1871.23" departLane="best" from="146181956#4" to="295053247"/>
    <trip id="veh163" type="veh_passenger" depart="1882.78" departLane="best" from="116297053#1" to="90972134#0"/>
    <trip id="veh164" type="veh_passenger" depart="1894.33" departLane="best" from="-90972164#1" to="295114632"/>
    <trip id="veh165" type="veh_passenger" depart="1905.88" departLane="best" from="146165259#5" to="-23916073#1"/>
    <trip id="veh166" type="veh_passenger" depart="1917.43" departLane="best" from="-37656206#10" to="137310463#13"/>
    <trip id="veh167" type="veh_passenger" depart="1928.98" departLane="best" from="-137310463#5" to="90972134#0"/>
    <trip id="veh168" type="veh_passenger" depart="1940.53" departLane="best" departSpeed="max" from="-295053247" to="90972122#1"/>
    <trip id="veh169" type="veh_passenger" depart="1952.08" departLane="best" from="146165259#2" to="47733014#0"/>
    <trip id="veh170" type="veh_passenger" depart="1963.63" departLane="best" departSpeed="max" from="-295053247" to="116297063#1"/>
    <trip id="veh171" type="veh_passenger" depart="1975.18" departLane="best" from="-47733014#2" to="37656206#9"/>
    <trip id="veh172" type="veh_passenger" depart="1986.73" departLane="best" from="146165259#0" to="137310463#1"/>
    <trip id="veh173" type="veh_passenger" depart="1998.29" departLane="best" from="37656206#7" to="146167895"/>
    <trip id="veh174" type="veh_passenger" depart="2009.84" departLane="best" from="294805814#6" to="146165260#3"/>
    <trip id="veh175" type="veh_passenger" depart="2021.39" departLane="best" from="116297053#1" to="-37656206#7"/>
    <trip id="veh176" type="veh_passenger" depart="2032.94" departLane="best" departSpeed="max" from="-706624008" to="-146167893#4"/>
    <trip id="veh177" type="veh_passenger" depart="2044.49" departLane="best" departSpeed="max" from="-706624008" to="-23916073#0"/>
    <trip id="veh178" type="veh_passenger" depart="2056.04" departLane="best" from="90972130#2" to="90972130#4"/>
    <trip id="veh179" type="veh_passenger" depart="2067.59" departLane="best" from="146181956#4" to="-146167893#4"/>
    <trip id="veh180" type="veh_passenger" depart="2079.14" departLane="best" from="-137310463#3" to="-146165259#2"/>
    <trip id="veh181" type="veh_passenger" depart="2090.69" departLane="best" from="-137310463#11" to="90972136#0"/>
    <trip id="veh182" type="veh_passenger" depart="2102.24" departLane="best" departSpeed="max" from="23916073#0" to="37656206#3"/>
    <trip id="veh183" type="veh_passenger" depart="2113.79" departLane="best" from="-137310463#8" to="-23916073#0"/>
    <trip id="veh184" type="veh_passenger" depart="2125.34" departLane="best" departSpeed="max" from="-146167894" to="-116297053#3"/>
    <trip id="veh185" type="veh_passenger" depart="2136.89" departLane="best" from="146181956#2" to="137310465"/>
    <trip id="veh186" type="veh_passenger" depart="2148.45" departLane="best" from="294805814#2" to="137310463#14"/>
    <trip id="veh187" type="veh_passenger" depart="2160.00" departLane="best" departSpeed="max" from="-47733014#3" to="-146181956#1"/>
    <trip id="veh188" type="veh_passenger" depart="2171.55" departLane="best" departSpeed="max" from="-90972130#4" to="-294805814#1"/>
    <trip id="veh189" type="veh_passenger" depart="2183.10" departLane="best" from="137310463#3" to="-116297053#0"/>
    <trip id="veh190" type="veh_passenger" depart="2194.65" departLane="best" from="-146165260#1" to="37656206#9"/>
    <trip id="veh191" type="veh_passenger" depart="2206.20" departLane="best" from="137310463#9" to="137310463#11"/>
    <trip id="veh192" type="veh_passenger" depart="2217.75" departLane="best" departSpeed="max" from="-146165260#3" to="90972164#0"/>
    <trip id="veh193" type="veh_passenger" depart="2229.30" departLane="best" departSpeed="max" from="-90972134#2" to="137310463#0"/>
    <trip id="veh194" type="veh_passenger" depart="2240.85" departLane="best" from="146181956#3" to="90972122#1"/>
    <trip id="veh195" type="veh_passenger" depart="2252.40" departLane="best" departSpeed="max" from="-90972119" to="622140347"/>
    <trip id="veh196" type="veh_passenger" depart="2263.95" departLane="best" from="137310463#6" to="90972168#1"/>
    <trip id="veh197" type="veh_passenger" depart="2275.50" departLane="best" from="116297053#1" to="90972136#1"/>
    <trip id="veh198" type="veh_passenger" depart="2287.05" departLane="best" from="37656206#3" to="146167895"/>
    <trip id="veh199" type="veh_passenger" depart="2298.61" departLane="best" departSpeed="max" from="23916073#0" to="146165260#3"/>
    <trip id="veh200" type="veh_passenger" depart="2310.16" departLane="best" from="37656206#6" to="37656206#10"/>
    <trip id="veh201" type="veh_passenger" depart="2321.71" departLane="best" from="146167893#2" to="-146165259#3"/>
    <trip id="veh202" type="veh_passenger" depart="2333.26" departLane="best" from="-137310463#10" to="-37656206#2"/>
    <trip id="veh203" type="veh_passenger" depart="2344.81" departLane="best" from="-137310463#15" to="-37656206#6"/>
    <trip id="veh204" type="veh_passenger" depart="2356.36" departLane="best" departSpeed="max" from="-146183131#1" to="-90972130#1"/>
    <trip id="veh205" type="veh_passenger" depart="2367.91" departLane="best" from="-90972165#1" to="-146165259#4"/>
    <trip id="veh206" type="veh_passenger" depart="2379.46" departLane="best" from="146165259#0" to="137310463#12"/>
    <trip id="veh207" type="veh_passenger" depart="2391.01" departLane="best" departSpeed="max" from="-47733014#3" to="146165260#1"/>
    <trip id="veh208" type="veh_passenger" depart="2402.56" departLane="best" departSpeed="max" from="-47733014#3" to="-23916073#0"/>
    <trip id="veh209" type="veh_passenger" depart="2414.11" departLane="best" departSpeed="max" from="116297053#0" to="295053247"/>
    <trip id="veh210" type="veh_passenger" depart="2425.66" departLane="best" from="294805814#5" to="37656206#8"/>
    <trip id="veh211" type="veh_passenger" depart="2437.21" departLane="best" from="37656206#6" to="-116297053#0"/>
    <trip id="veh212" type="veh_passenger" depart="2448.77" departLane="best" departSpeed="max" from="-295114632" to="37656206#4"/>
    <trip id="veh213" type="veh_passenger" depart="2460.32" departLane="best" from="294805814#3" to="90972136#2"/>
    <trip id="veh214" type="veh_passenger" depart="2471.87" departLane="best" departSpeed="max" from="-47733014#3" to="37656206#2"/>
    <trip id="veh215" type="veh_passenger" depart="2483.42" departLane="best" from="-90972165#2" to="146167895"/>
    <trip id="veh216" type="veh_passenger" depart="2494.97" departLane="best" departSpeed="max" from="-146167895" to="-23916073#0"/>
    <trip id="veh217" type="veh_passenger" depart="2506.52" departLane="best" departSpeed="max" from="-295114624" to="294805814#3"/>
    <trip id="veh218" type="veh_passenger" depart="2518.07" departLane="best" departSpeed="max" from="-47733014#3" to="-146167893#2"/>
    <trip id="veh219" type="veh_passenger" depart="2529.62" departLane="best" from="-90972130#0" to="-146165259#1"/>
    <trip id="veh220" type="veh_passenger" depart="2541.17" departLane="best" from="137310463#0" to="-116297053#4"/>
    <trip id="veh221" type="veh_passenger" depart="2552.72" departLane="best" from="-47733014#0" to="146165260#3"/>
    <trip id="veh222" type="veh_passenger" depart="2564.27" departLane="best" from="-116297063#0" to="146181956#4"/>
    <trip id="veh223" type="veh_passenger" depart="2575.82" departLane="best" from="146165259#2" to="137310463#6"/>
    <trip id="veh224" type="veh_passenger" depart="2587.37" departLane="best" from="137188385" to="-116297053#4"/>
    <trip id="veh225" type="veh_passenger" depart="2598.93" departLane="best" from="-146165260#2" to="90972119"/>
    <trip id="veh226" type="veh_passenger" depart="2610.48" departLane="best" from="146181956#4" to="137310463#3"/>
    <trip id="veh227" type="veh_passenger" depart="2622.03" departLane="best" from="-116297058" to="-146165259#5"/>
    <trip id="veh228" type="veh_passenger" depart="2633.58" departLane="best" from="-90972171#2" to="90972164#1"/>
    <trip id="veh229" type="veh_passenger" depart="2645.13" departLane="best" from="-146165260#0" to="47733014#3"/>
    <trip id="veh230" type="veh_passenger" depart="2656.68" departLane="best" from="-137310463#2" to="37656206#4"/>
    <trip id="veh231" type="veh_passenger" depart="2668.23" departLane="best" from="90972130#2" to="146183131#0"/>