<?xml version="1.0" encoding="UTF-8"?>

<!-- generated on 2024-09-29 17:05:29.855586 by osmWebWizard.py UNKNOWN
<configuration>
    <net-file value="/opt/homebrew/Cellar/sumo/1.20.0/share/sumo/tools/2024-09-29-17-05-26/osm.net.xml.gz"/>
    <output-trip-file value="/opt/homebrew/Cellar/sumo/1.20.0/share/sumo/tools/2024-09-29-17-05-26/osm.pedestrian.trips.xml"/>
    <route-file value="/opt/homebrew/Cellar/sumo/1.20.0/share/sumo/tools/2024-09-29-17-05-26/osm.pedestrian.rou.xml"/>
    <pedestrians value="True"/>
    <prefix value="ped"/>
    <vehicle-class value="pedestrian"/>
    <fringe-factor value="1"/>
    <max-distance value="2000.0"/>
    <insertion-density value="10.0"/>
</configuration>
-->

<routes xmlns:xsi="http://www.w3.org/2001/XMLSchema-instance" xsi:noNamespaceSchemaLocation="http://sumo.dlr.de/xsd/routes_file.xsd">
    <vType id="ped_pedestrian" vClass="pedestrian"/>
    <person id="ped0" depart="0.00" type="ped_pedestrian">
        <walk from="362855266#1" to="-131242248"/>
    </person>
    <person id="ped1" depart="15.09" type="ped_pedestrian">
        <walk from="-729929247#2" to="-708615844"/>
    </person>
    <person id="ped2" depart="30.19" type="ped_pedestrian">
        <walk from="679123178#1" to="589610713#0"/>
    </person>
    <person id="ped3" depart="45.28" type="ped_pedestrian">
        <walk from="873411671" to="-264761847#2"/>
    </person>
    <person id="ped4" depart="60.38" type="ped_pedestrian">
        <walk from="-967872011#0" to="-137310467"/>
    </person>
    <person id="ped5" depart="75.47" type="ped_pedestrian">
        <walk from="-627431701" to="138222875#0"/>
    </person>
    <person id="ped6" depart="90.57" type="ped_pedestrian">
        <walk from="-131242248" to="-589610713#5"/>
    </person>
    <person id="ped7" depart="105.66" type="ped_pedestrian">
        <walk from="589610669#0" to="172594360#0"/>
    </person>
    <person id="ped8" depart="120.76" type="ped_pedestrian">
        <walk from="-708615844" to="264761861"/>
    </person>
    <person id="ped9" depart="135.85" type="ped_pedestrian">
        <walk from="729929247#2" to="-1309119477"/>
    </person>
    <person id="ped10" depart="150.95" type="ped_pedestrian">
        <walk from="729929247#1" to="589610713#4"/>
    </person>
    <person id="ped11" depart="166.04" type="ped_pedestrian">
        <walk from="-814043290" to="-589610671"/>
    </person>
    <person id="ped12" depart="181.14" type="ped_pedestrian">
        <walk from="90972130#3" to="-784744766#1"/>
    </person>
    <person id="ped13" depart="196.23" type="ped_pedestrian">
        <walk from="-264761866" to="-264761872#0"/>
    </person>
    <person id="ped14" depart="211.33" type="ped_pedestrian">
        <walk from="773988763" to="294832782"/>
    </person>
    <person id="ped15" depart="226.42" type="ped_pedestrian">
        <walk from="729929247#1" to="627431701"/>
    </person>
    <person id="ped16" depart="241.51" type="ped_pedestrian">
        <walk from="146165259#4" to="967843789"/>
    </person>
    <person id="ped17" depart="256.61" type="ped_pedestrian">
        <walk from="-874506063" to="172594360#1"/>
    </person>
    <person id="ped18" depart="271.70" type="ped_pedestrian">
        <walk from="764882713" to="294835141#2"/>
    </person>
    <person id="ped19" depart="286.80" type="ped_pedestrian">
        <walk from="784744765#1" to="264761847#0"/>
    </person>
    <person id="ped20" depart="301.89" type="ped_pedestrian">
        <walk from="589610713#6" to="-138222877"/>
    </person>
    <person id="ped21" depart="316.99" type="ped_pedestrian">
        <walk from="-708615845" to="-764882712"/>
    </person>
    <person id="ped22" depart="332.08" type="ped_pedestrian">
        <walk from="-264761847#0" to="-711295092"/>
    </person>
    <person id="ped23" depart="347.18" type="ped_pedestrian">
        <walk from="-264761872#1" to="-729929247#2"/>
    </person>
    <person id="ped24" depart="362.27" type="ped_pedestrian">
        <walk from="362855266#0" to="-874134991"/>
    </person>
    <person id="ped25" depart="377.37" type="ped_pedestrian">
        <walk from="-874506062#1" to="-622140345"/>
    </person>
    <person id="ped26" depart="392.46" type="ped_pedestrian">
        <walk from="-729929247#0" to="900635743"/>
    </person>
    <person id="ped27" depart="407.56" type="ped_pedestrian">
        <walk from="401687533" to="294835136"/>
    </person>
    <person id="ped28" depart="422.65" type="ped_pedestrian">
        <walk from="-589610674" to="627431701"/>
    </person>
    <person id="ped29" depart="437.74" type="ped_pedestrian">
        <walk from="-589610673#0" to="-876212721"/>
    </person>
    <person id="ped30" depart="452.84" type="ped_pedestrian">
        <walk from="967872011#2" to="362855266#1"/>
    </person>
    <person id="ped31" depart="467.93" type="ped_pedestrian">
        <walk from="172594360#2" to="589610713#1"/>
    </person>
    <person id="ped32" depart="483.03" type="ped_pedestrian">
        <walk from="765297420" to="729921274"/>
    </person>
    <person id="ped33" depart="498.12" type="ped_pedestrian">
        <walk from="-711295092" to="-137310469"/>
    </person>
    <person id="ped34" depart="513.22" type="ped_pedestrian">
        <walk from="-778796062" to="-729929247#0"/>
    </person>
    <person id="ped35" depart="528.31" type="ped_pedestrian">
        <walk from="-622140346" to="90972130#0"/>
    </person>
    <person id="ped36" depart="543.41" type="ped_pedestrian">
        <walk from="814043290" to="-773988763"/>
    </person>
    <person id="ped37" depart="558.50" type="ped_pedestrian">
        <walk from="589610669#1" to="-876240480"/>
    </person>
    <person id="ped38" depart="573.60" type="ped_pedestrian">
        <walk from="876212721" to="1095324621"/>
    </person>
    <person id="ped39" depart="588.69" type="ped_pedestrian">
        <walk from="-729929247#0" to="-729921277"/>
    </person>
    <person id="ped40" depart="603.79" type="ped_pedestrian">
        <walk from="172594361" to="-729929246"/>
    </person>
    <person id="ped41" depart="618.88" type="ped_pedestrian">
        <walk from="264761847#2" to="874134991"/>
    </person>
    <person id="ped42" depart="633.98" type="ped_pedestrian">
        <walk from="-898356529" to="-708615844"/>
    </person>
    <person id="ped43" depart="649.07" type="ped_pedestrian">
        <walk from="968063681" to="138222875#1"/>
    </person>
    <person id="ped44" depart="664.16" type="ped_pedestrian">
        <walk from="-264761847#2" to="-138222877"/>
    </person>
    <person id="ped45" depart="679.26" type="ped_pedestrian">
        <walk from="-294835141#0" to="295053250"/>
    </person>
    <person id="ped46" depart="694.35" type="ped_pedestrian">
        <walk from="729929245" to="-967872011#0"/>
    </person>
    <person id="ped47" depart="709.45" type="ped_pedestrian">
        <walk from="-172594360#2" to="-876212721"/>
    </person>
    <person id="ped48" depart="724.54" type="ped_pedestrian">
        <walk from="968063681" to="146165259#2"/>
    </person>
    <person id="ped49" depart="739.64" type="ped_pedestrian">
        <walk from="967727433" to="784744765#1"/>
    </person>
    <person id="ped50" depart="754.73" type="ped_pedestrian">
        <walk from="-131242245" to="622140345"/>
    </person>
    <person id="ped51" depart="769.83" type="ped_pedestrian">
        <walk from="589610713#1" to="146165259#4"/>
    </person>
    <person id="ped52" depart="784.92" type="ped_pedestrian">
        <walk from="-729929247#0" to="362855266#1"/>
    </person>
    <person id="ped53" depart="800.02" type="ped_pedestrian">
        <walk from="-294835141#0" to="-967872012"/>
    </person>
    <person id="ped54" depart="815.11" type="ped_pedestrian">
        <walk from="1095324620" to="90972130#2"/>
    </person>
    <person id="ped55" depart="830.21" type="ped_pedestrian">
        <walk from="814043290" to="-729929246"/>
    </person>
    <person id="ped56" depart="845.30" type="ped_pedestrian">
        <walk from="137310469" to="-589610713#1"/>
    </person>
    <person id="ped57" depart="860.39" type="ped_pedestrian">
        <walk from="874506063" to="784744766#1"/>
    </person>
    <person id="ped58" depart="875.49" type="ped_pedestrian">
        <walk from="-765296397" to="362855266#0"/>
    </person>
    <person id="ped59" depart="890.58" type="ped_pedestrian">
        <walk from="294835136" to="-589610669#1"/>
    </person>
    <person id="ped60" depart="905.68" type="ped_pedestrian">
        <walk from="708615845" to="146165259#5"/>
    </person>
    <person id="ped61" depart="920.77" type="ped_pedestrian">
        <walk from="729921275" to="146165259#3"/>
    </person>
    <person id="ped62" depart="935.87" type="ped_pedestrian">
        <walk from="-116297049" to="-784744765#0"/>
    </person>
    <person id="ped63" depart="950.96" type="ped_pedestrian">
        <walk from="-131242247#1" to="876240480"/>
    </person>
    <person id="ped64" depart="966.06" type="ped_pedestrian">
        <walk from="814043291#0" to="765296397"/>
    </person>
    <person id="ped65" depart="981.15" type="ped_pedestrian">
        <walk from="-765297420" to="-172594360#1"/>
    </person>
    <person id="ped66" depart="996.25" type="ped_pedestrian">
        <walk from="814043291#0" to="90972130#1"/>
    </person>
    <person id="ped67" depart="1011.34" type="ped_pedestrian">
        <walk from="-264761847#1" to="131242247#1"/>
    </person>
    <person id="ped68" depart="1026.44" type="ped_pedestrian">
        <walk from="-23916073#0" to="708615845"/>
    </person>
    <person id="ped69" depart="1041.53" type="ped_pedestrian">
        <walk from="711295092" to="-295053375"/>
    </person>
    <person id="ped70" depart="1056.63" type="ped_pedestrian">
        <walk from="131242245" to="172594360#1"/>
    </person>
    <person id="ped71" depart="1071.72" type="ped_pedestrian">
        <walk from="-729929247#0" to="814043290"/>
    </person>
    <person id="ped72" depart="1086.81" type="ped_pedestrian">
        <walk from="-967872011#0" to="-622140346"/>
    </person>
    <person id="ped73" depart="1101.91" type="ped_pedestrian">
        <walk from="146165259#5" to="627431701"/>
    </person>
    <person id="ped74" depart="1117.00" type="ped_pedestrian">
        <walk from="-589610713#6" to="-773988763"/>
    </person>
    <person id="ped75" depart="1132.10" type="ped_pedestrian">
        <walk from="967872012" to="589610669#0"/>
    </person>
    <person id="ped76" depart="1147.19" type="ped_pedestrian">
        <walk from="-967872012" to="146165259#0"/>
    </person>
    <person id="ped77" depart="1162.29" type="ped_pedestrian">
        <walk from="-294835141#2" to="-708615845"/>
    </person>
    <person id="ped78" depart="1177.38" type="ped_pedestrian">
        <walk from="-814043290" to="264761847#2"/>
    </person>
    <person id="ped79" depart="1192.48" type="ped_pedestrian">
        <walk from="-711295092" to="-708615844"/>
    </person>
    <person id="ped80" depart="1207.57" type="ped_pedestrian">
        <walk from="-23916073#0" to="295053375"/>
    </person>
    <person id="ped81" depart="1222.67" type="ped_pedestrian">
        <walk from="-711295092" to="874506062#1"/>
    </person>
    <person id="ped82" depart="1237.76" type="ped_pedestrian">
        <walk from="784744765#1" to="-23916073#0"/>
    </person>
    <person id="ped83" depart="1252.86" type="ped_pedestrian">
        <walk from="-729921274" to="589610673#1"/>
    </person>
    <person id="ped84" depart="1267.95" type="ped_pedestrian">
        <walk from="-622140346" to="-295053375"/>
    </person>
    <person id="ped85" depart="1283.04" type="ped_pedestrian">
        <walk from="898356529" to="23916073#1"/>
    </person>
    <person id="ped86" depart="1298.14" type="ped_pedestrian">
        <walk from="1309119477" to="729921277"/>
    </person>
    <person id="ped87" depart="1313.23" type="ped_pedestrian">
        <walk from="729929247#1" to="-589610713#3"/>
    </person>
    <person id="ped88" depart="1328.33" type="ped_pedestrian">
        <walk from="-264761872#0" to="-967872011#2"/>
    </person>
    <person id="ped89" depart="1343.42" type="ped_pedestrian">
        <walk from="-967872011#0" to="116297049"/>
    </person>
    <person id="ped90" depart="1358.52" type="ped_pedestrian">
        <walk from="627431701" to="589610674"/>
    </person>
    <person id="ped91" depart="1373.61" type="ped_pedestrian">
        <walk from="967872011#1" to="-264761872#0"/>
    </person>
    <person id="ped92" depart="1388.71" type="ped_pedestrian">
        <walk from="-900635743" to="-814043290"/>
    </person>
    <person id="ped93" depart="1403.80" type="ped_pedestrian">
        <walk from="-589610713#3" to="1095319731#1"/>
    </person>
    <person id="ped94" depart="1418.90" type="ped_pedestrian">
        <walk from="-967872011#0" to="-730151041"/>
    </person>
    <person id="ped95" depart="1433.99" type="ped_pedestrian">
        <walk from="-729921277" to="876212722#1"/>
    </person>
    <person id="ped96" depart="1449.09" type="ped_pedestrian">
        <walk from="1095319731#0" to="784744765#1"/>
    </person>
    <person id="ped97" depart="1464.18" type="ped_pedestrian">
        <walk from="172594360#1" to="-172594360#0"/>
    </person>
    <person id="ped98" depart="1479.28" type="ped_pedestrian">
        <walk from="968063681" to="765297202"/>
    </person>
    <person id="ped99" depart="1494.37" type="ped_pedestrian">
        <walk from="967727433" to="876212722#1"/>
    </person>
    <person id="ped100" depart="1509.46" type="ped_pedestrian">
        <walk from="773988763" to="-589610673#1"/>
    </person>
    <person id="ped101" depart="1524.56" type="ped_pedestrian">
        <walk from="131242247#1" to="-622140346"/>
    </person>
    <person id="ped102" depart="1539.65" type="ped_pedestrian">
        <walk from="-898356529" to="-172594360#1"/>
    </person>
    <person id="ped103" depart="1554.75" type="ped_pedestrian">
        <walk from="-874506063" to="967872011#1"/>
    </person>
    <person id="ped104" depart="1569.84" type="ped_pedestrian">
        <walk from="-729929247#0" to="729921277"/>
    </person>
    <person id="ped105" depart="1584.94" type="ped_pedestrian">
        <walk from="1095324620" to="-967872011#0"/>
    </person>
    <person id="ped106" depart="1600.03" type="ped_pedestrian">
        <walk from="90972130#3" to="967872012"/>
    </person>
    <person id="ped107" depart="1615.13" type="ped_pedestrian">
        <walk from="172594360#2" to="622140345"/>
    </person>
    <person id="ped108" depart="1630.22" type="ped_pedestrian">
        <walk from="-589610669#1" to="-764882713"/>
    </person>
    <person id="ped109" depart="1645.32" type="ped_pedestrian">
        <walk from="967727433" to="264761847#0"/>
    </person>
    <person id="ped110" depart="1660.41" type="ped_pedestrian">
        <walk from="146165259#5" to="679123185#0"/>
    </person>
    <person id="ped111" depart="1675.51" type="ped_pedestrian">
        <walk from="-172594360#1" to="264761847#1"/>
    </person>
    <person id="ped112" depart="1690.60" type="ped_pedestrian">
        <walk from="138222875#0" to="778796062"/>
    </person>
    <person id="ped113" depart="1705.69" type="ped_pedestrian">
        <walk from="-589610671" to="90972130#4"/>
    </person>
    <person id="ped114" depart="1720.79" type="ped_pedestrian">
        <walk from="-264761847#0" to="-589610713#2"/>
    </person>
    <person id="ped115" depart="1735.88" type="ped_pedestrian">
        <walk from="264761872#0" to="589610674"/>
    </person>
    <person id="ped116" depart="1750.98" type="ped_pedestrian">
        <walk from="-729921273" to="-294835141#2"/>
    </person>
    <person id="ped117" depart="1766.07" type="ped_pedestrian">
        <walk from="873368382" to="-729921276"/>
    </person>
    <person id="ped118" depart="1781.17" type="ped_pedestrian">
        <walk from="264761872#0" to="294835141#2"/>
    </person>
    <person id="ped119" depart="1796.26" type="ped_pedestrian">
        <walk from="-967843789" to="264761847#1"/>
    </person>
    <person id="ped120" depart="1811.36" type="ped_pedestrian">
        <walk from="146165259#1" to="898356529"/>
    </person>
    <person id="ped121" depart="1826.45" type="ped_pedestrian">
        <walk from="-589610713#6" to="622140344#1"/>
    </person>
    <person id="ped122" depart="1841.55" type="ped_pedestrian">
        <walk from="-729921274" to="-876240480"/>
    </person>
    <person id="ped123" depart="1856.64" type="ped_pedestrian">
        <walk from="589610674" to="-765296397"/>
    </person>
    <person id="ped124" depart="1871.74" type="ped_pedestrian">
        <walk from="-778796062" to="679123185#1"/>
    </person>
    <person id="ped125" depart="1886.83" type="ped_pedestrian">
        <walk from="-23916073#0" to="1095324621"/>
    </person>
    <person id="ped126" depart="1901.93" type="ped_pedestrian">
        <walk from="968063681" to="968063681"/>
    </person>
    <person id="ped127" depart="1917.02" type="ped_pedestrian">
        <walk from="-23916073#1" to="-622140346"/>
    </person>
    <person id="ped128" depart="1932.11" type="ped_pedestrian">
        <walk from="-729929247#0" to="898356529"/>
    </person>
    <person id="ped129" depart="1947.21" type="ped_pedestrian">
        <walk from="814043291#0" to="814043291#0"/>
    </person>
    <person id="ped130" depart="1962.30" type="ped_pedestrian">
        <walk from="-874506062#0" to="-589610671"/>
    </person>
    <person id="ped131" depart="1977.40" type="ped_pedestrian">
        <walk from="765296397" to="589610713#6"/>
    </person>
    <person id="ped132" depart="1992.49" type="ped_pedestrian">
        <walk from="294835136" to="967872011#2"/>
    </person>
    <person id="ped133" depart="2007.59" type="ped_pedestrian">
        <walk from="589610669#1" to="-1309119477"/>
    </person>
    <person id="ped134" depart="2022.68" type="ped_pedestrian">
        <walk from="730151041" to="-765296397"/>
    </person>
    <person id="ped135" depart="2037.78" type="ped_pedestrian">
        <walk from="589610673#0" to="900635743"/>
    </person>
    <person id="ped136" depart="2052.87" type="ped_pedestrian">
        <walk from="-362855266#0" to="-294835141#1"/>
    </person>
    <person id="ped137" depart="2067.97" type="ped_pedestrian">
        <walk from="-294835136" to="172594360#2"/>
    </person>
    <person id="ped138" depart="2083.06" type="ped_pedestrian">
        <walk from="-729929247#1" to="294832782"/>
    </person>
    <person id="ped139" depart="2098.16" type="ped_pedestrian">
        <walk from="622140345" to="-589610713#6"/>
    </person>
    <person id="ped140" depart="2113.25" type="ped_pedestrian">
        <walk from="295053375" to="-729929246"/>
    </person>
    <person id="ped141" depart="2128.34" type="ped_pedestrian">
        <walk from="131242247#1" to="874506062#1"/>
    </person>
    <person id="ped142" depart="2143.44" type="ped_pedestrian">
        <walk from="773988763" to="-264761866"/>
    </person>
    <person id="ped143" depart="2158.53" type="ped_pedestrian">
        <walk from="-967872011#0" to="-729929247#2"/>
    </person>
    <person id="ped144" depart="2173.63" type="ped_pedestrian">
        <walk from="-116297049" to="729921273"/>
    </person>
    <person id="ped145" depart="2188.72" type="ped_pedestrian">
        <walk from="362855266#0" to="-729929246"/>
    </person>
    <person id="ped146" depart="2203.82" type="ped_pedestrian">
        <walk from="679123178#2" to="172594360#1"/>
    </person>
    <person id="ped147" depart="2218.91" type="ped_pedestrian">
        <walk from="-967872011#1" to="-131242245"/>
    </person>
    <person id="ped148" depart="2234.01" type="ped_pedestrian">
        <walk from="-23916073#1" to="814043291#1"/>
    </person>
    <person id="ped149" depart="2249.10" type="ped_pedestrian">
        <walk from="874506062#0" to="172594360#0"/>
    </person>
    <person id="ped150" depart="2264.20" type="ped_pedestrian">
        <walk from="765296397" to="264761847#1"/>
    </person>
    <person id="ped151" depart="2279.29" type="ped_pedestrian">
        <walk from="-589610669#0" to="-295053250"/>
    </person>
    <person id="ped152" depart="2294.39" type="ped_pedestrian">
        <walk from="-765297420" to="874134991"/>
    </person>
    <person id="ped153" depart="2309.48" type="ped_pedestrian">
        <walk from="729929246" to="784744765#1"/>
    </person>
    <person id="ped154" depart="2324.58" type="ped_pedestrian">
        <walk from="874134991" to="-622140346"/>
    </person>
    <person id="ped155" depart="2339.67" type="ped_pedestrian">
        <walk from="-729921277" to="-264761872#1"/>
    </person>
    <person id="ped156" depart="2354.76" type="ped_pedestrian">
        <walk from="729921275" to="814043291#1"/>
    </person>
    <person id="ped157" depart="2369.86" type="ped_pedestrian">
        <walk from="-900635743" to="294835141#2"/>
    </person>
    <person id="ped158" depart="2384.95" type="ped_pedestrian">
        <walk from="-589610669#1" to="876240480"/>
    </person>
    <person id="ped159" depart="2400.05" type="ped_pedestrian">
        <walk from="784744766#0" to="967843789"/>
    </person>
    <person id="ped160" depart="2415.14" type="ped_pedestrian">
        <walk from="729929247#2" to="814043291#1"/>
    </person>
    <person id="ped161" depart="2430.24" type="ped_pedestrian">
        <walk from="-131242248" to="679123178#1"/>
    </person>
    <person id="ped162" depart="2445.33" type="ped_pedestrian">
        <walk from="-784744766#0" to="876240480"/>
    </person>
    <person id="ped163" depart="2460.43" type="ped_pedestrian">
        <walk from="729929247#0" to="784744766#0"/>
    </person>
    <person id="ped164" depart="2475.52" type="ped_pedestrian">
        <walk from="729929247#2" to="-729929247#0"/>
    </person>
    <person id="ped165" depart="2490.62" type="ped_pedestrian">
        <walk from="729921278" to="-294835136"/>
    </person>
    <person id="ped166" depart="2505.71" type="ped_pedestrian">
        <walk from="814043290" to="784744765#1"/>
    </person>
    <person id="ped167" depart="2520.81" type="ped_pedestrian">
        <walk from="-708615844" to="730151041"/>
    </person>
    <person id="ped168" depart="2535.90" type="ped_pedestrian">
        <walk from="1095324621" to="-765297203"/>
    </person>
    <person id="ped169" depart="2550.99" type="ped_pedestrian">
        <walk from="729929246" to="-708615845"/>
    </person>
    <person id="ped170" depart="2566.09" type="ped_pedestrian">
        <walk from="-131242248" to="-589610713#4"/>
    </person>
    <person id="ped171" depart="2581.18" type="ped_pedestrian">
        <walk from="-784744765#1" to="784744766#0"/>
    </person>
    <person id="ped172" depart="2596.28" type="ped_pedestrian">
        <walk from="965877699" to="-730151041"/>
    </person>
    <person id="ped173" depart="2611.37" type="ped_pedestrian">
        <walk from="362855266#1" to="-898356529"/>
    </person>
    <person id="ped174" depart="2626.47" type="ped_pedestrian">
        <walk from="967872011#0" to="146165259#4"/>
    </person>
    <person id="ped175" depart="2641.56" type="ped_pedestrian">
        <walk from="900635743" to="-294835141#1"/>
    </person>
    <person id="ped176" depart="2656.66" type="ped_pedestrian">
        <walk from="967727433" to="-589610713#1"/>
    </person>
    <person id="ped177" depart="2671.75" type="ped_pedestrian">
        <walk from="90972130#4" to="-729929247#0"/>
    </person>
    <person id="ped178" depart="2686.85" type="ped_pedestrian">
        <walk from="-294835136" to="-967872012"/>
    </person>
    <person id="ped179" depart="2701.94" type="ped_pedestrian">
        <walk from="627431701" to="-773988763"/>
    </person>
    <person id="ped180" depart="2717.04" type="ped_pedestrian">
        <walk from="294832782" to="138222877"/>
    </person>
    <person id="ped181" depart="2732.13" type="ped_pedestrian">
        <walk from="-876212722#0" to="264761847#0"/>
    </person>
    <person id="ped182" depart="2747.23" type="ped_pedestrian">
        <walk from="-729921278" to="622140344#0"/>
    </person>
    <person id="ped183" depart="2762.32" type="ped_pedestrian">
        <walk from="-116297049" to="876212722#1"/>
    </person>
    <person id="ped184" depart="2777.41" type="ped_pedestrian">
        <walk from="146165259#4" to="622140345"/>
    </person>
    <person id="ped185" depart="2792.51" type="ped_pedestrian">
        <walk from="679123178#2" to="589610673#1"/>
    </person>
    <person id="ped186" depart="2807.60" type="ped_pedestrian">
        <walk from="589610673#0" to="-784744766#0"/>
    </person>
    <person id="ped187" depart="2822.70" type="ped_pedestrian">
        <walk from="-773988763" to="773988763"/>
    </person>
    <person id="ped188" depart="2837.79" type="ped_pedestrian">
        <walk from="622140345" to="-765296397"/>
    </person>
    <person id="ped189" depart="2852.89" type="ped_pedestrian">
        <walk from="-765297420" to="-965877699"/>
    </person>
    <person id="ped190" depart="2867.98" type="ped_pedestrian">
        <walk from="-900635743" to="-764882713"/>
    </person>
    <person id="ped191" depart="2883.08" type="ped_pedestrian">
        <walk from="-295053250" to="-967872011#0"/>
    </person>
    <person id="ped192" depart="2898.17" type="ped_pedestrian">
        <walk from="900635743" to="589610713#0"/>
    </person>
    <person id="ped193" depart="2913.27" type="ped_pedestrian">
        <walk from="874506062#0" to="294835141#1"/>
    </person>
    <person id="ped194" depart="2928.36" type="ped_pedestrian">
        <walk from="-765296397" to="172594360#0"/>
    </person>
    <person id="ped195" depart="2943.46" type="ped_pedestrian">
        <walk from="-116297049" to="-764882711"/>
    </person>
    <person id="ped196" depart="2958.55" type="ped_pedestrian">
        <walk from="-967872011#2" to="264761847#1"/>
    </person>
    <person id="ped197" depart="2973.64" type="ped_pedestrian">
        <walk from="589610669#1" to="1095324622"/>
    </person>
    <person id="ped198" depart="2988.74" type="ped_pedestrian">
        <walk from="-968063681" to="-622140346"/>
    </person>
    <person id="ped199" depart="3003.83" type="ped_pedestrian">
        <walk from="1309119477" to="874506062#0"/>
    </person>
    <person id="ped200" depart="3018.93" type="ped_pedestrian">
        <walk from="729929246" to="-589610674"/>
    </person>
    <person id="ped201" depart="3034.02" type="ped_pedestrian">
        <walk from="-264761847#1" to="138222877"/>
    </person>
    <person id="ped202" depart="3049.12" type="ped_pedestrian">
        <walk from="295053375" to="-784744766#1"/>
    </person>
    <person id="ped203" depart="3064.21" type="ped_pedestrian">
        <walk from="764882711" to="679123185#1"/>
    </person>
    <person id="ped204" depart="3079.31" type="ped_pedestrian">
        <walk from="589610674" to="-708615845"/>
    </person>
    <person id="ped205" depart="3094.40" type="ped_pedestrian">
        <walk from="-589610713#5" to="-131242248"/>
    </person>
    <person id="ped206" depart="3109.50" type="ped_pedestrian">
        <walk from="-729921276" to="131242245"/>
    </person>
    <person id="ped207" depart="3124.59" type="ped_pedestrian">
        <walk from="778796062" to="-23916073#0"/>
    </person>
    <person id="ped208" depart="3139.69" type="ped_pedestrian">
        <walk from="-967727433" to="295053250"/>
    </person>
    <person id="ped209" depart="3154.78" type="ped_pedestrian">
        <walk from="-589610713#4" to="589610713#4"/>
    </person>
    <person id="ped210" depart="3169.88" type="ped_pedestrian">
        <walk from="137310467" to="-729921276"/>
    </person>
    <person id="ped211" depart="3184.97" type="ped_pedestrian">
        <walk from="589610669#1" to="-1309119477"/>
    </person>
    <person id="ped212" depart="3200.06" type="ped_pedestrian">
        <walk from="679123185#1" to="729921273"/>
    </person>
    <person id="ped213" depart="3215.16" type="ped_pedestrian">
        <walk from="-294835136" to="-967872011#1"/>
    </person>
    <person id="ped214" depart="3230.25" type="ped_pedestrian">
        <walk from="-589610713#0" to="90972130#3"/>
    </person>
    <person id="ped215" depart="3245.35" type="ped_pedestrian">
        <walk from="146165259#0" to="-138222877"/>
    </person>
    <person id="ped216" depart="3260.44" type="ped_pedestrian">
        <walk from="-729921277" to="773988763"/>
    </person>
    <person id="ped217" depart="3275.54" type="ped_pedestrian">
        <walk from="1095324620" to="729929247#0"/>
    </person>
    <person id="ped218" depart="3290.63" type="ped_pedestrian">
        <walk from="589610673#1" to="967872011#2"/>
    </person>
    <person id="ped219" depart="3305.73" type="ped_pedestrian">
        <walk from="264761872#0" to="90972130#2"/>
    </person>
    <person id="ped220" depart="3320.82" type="ped_pedestrian">
        <walk from="873411671" to="294835141#1"/>
    </person>
    <person id="ped221" depart="3335.92" type="ped_pedestrian">
        <walk from="622140345" to="138222875#0"/>
    </person>
    <person id="ped222" depart="3351.01" type="ped_pedestrian">
        <walk from="764882713" to="172594360#0"/>
    </person>
    <person id="ped223" depart="3366.11" type="ped_pedestrian">
        <walk from="874134991" to="679123178#2"/>
    </person>
    <person id="ped224" depart="3381.20" type="ped_pedestrian">
        <walk from="1309119477" to="-729929245"/>
    </person>
    <person id="ped225" depart="3396.29" type="ped_pedestrian">
        <walk from="-729921277" to="362855266#0"/>
    </person>
    <person id="ped226" depart="3411.39" type="ped_pedestrian">
        <walk from="711295092" to="146165259#1"/>
    </person>