<?xml version='1.0' encoding='utf-8'?>
<routes xmlns:xsi="http://www.w3.org/2001/XMLSchema-instance" xsi:noNamespaceSchemaLocation="http://sumo.dlr.de/xsd/routes_file.xsd">
    <vType id="passenger" vClass="passenger" />
    <vehicle id="passanger0" type="passenger" depart="0.00" departLane="free">
        <route edges="4019053#2 -150032770#6 -150032770#5 -150032770#2 -150032770#1" />
    </vehicle>
    <vehicle id="passanger1" type="passenger" depart="1.00" departLane="free">
        <route edges="-700440130#1 -700440130#0 700440130#0 700440130#1 700440128 700440129 1290085526#0 150041594#0 -150041551#3 -4295817#3 -4295817#1" />
    </vehicle>
    <vehicle id="passanger2" type="passenger" depart="2.00" departLane="free">
        <route edges="484022097 4144040#3" />
    </vehicle>
    <vehicle id="passanger3" type="passenger" depart="3.00" departLane="free">
        <route edges="700440134 715913363#2 1290085525#0 1290085525#1 700440148 700440131 506015829#1 E0 E2 378479740#1 -700440136 -56163443#3 -150041594#1 -1290085526#1 -700440129 -700440128 -700440130#1 -700440130#0 -196656222#2 -196656222#1" />
    </vehicle>
    <vehicle id="passanger4" type="passenger" depart="5.00" departLane="free">
        <route edges="-53207957 150041593 196656222#0 196656222#1" />
    </vehicle>
    <vehicle id="passanger5" type="passenger" depart="8.00" departLane="free">
        <route edges="-53207957 150041593 196656222#0 196656222#1 196656222#2 700440130#0 700440130#1 700440128 700440129 1290085526#0 150041594#0 56163443#1 700440137 700440134 715913363#2 1290085525#0 1290085525#1 700440148 700440131 506015829#1 E0 E2 378479740#1" />
    </vehicle>
    <vehicle id="passanger6" type="passenger" depart="9.00" departLane="free">
        <route edges="59591195#2 73372559 -689912267#0 -624481020#4 -624481020#3 -624481020#1 -624481020#0 624481020#0 624481020#1 624481020#2 624481020#4 689912267#0 214812786 715913363#2 1290085525#0 1290085525#1 700440148 378479743#0 378479743#1 378479743#2 378479743#3 378479743#4 378479743#5 378479743#6 -1265069358#1 -1265069360#0" />
    </vehicle>
    <vehicle id="passanger7" type="passenger" depart="10.00" departLane="free">
        <route edges="59591195#2 73372559 -689912267#0 -624481020#4 -624481020#3 -624481020#1 -624481020#0 624481020#0 624481020#1 624481020#2 624481020#4 689912267#0 214812786 116556686#1 -60263960 -4195580#2 -4195580#1 -4195580#0 4195580#0 4195580#1" />
    </vehicle>
    <vehicle id="passanger8" type="passenger" depart="12.00" departLane="free">
        <route edges="715835444#5 23508224 -23508224 -715835444#5 -715835444#4 -715835444#3 -715835444#2" />
    </vehicle>
    <vehicle id="passanger9" type="passenger" depart="13.00" departLane="free">
        <route edges="-23248109#0 23248109#0 23248109#1 -378479743#3 -378479743#2 75392301#0 75392301#1 23015831 -23015831" />
    </vehicle>
    <vehicle id="passanger10" type="passenger" depart="15.00" departLane="free">
        <route edges="59591195#2 73372559 -689912267#0 -624481020#4 -624481020#3 -624481020#1 -624481020#0 624481020#0 624481020#1 624481020#2 624481020#4 689912267#0 214812786 378479740#1 -700440136 -56163443#3 -150041551#3 -4295817#3 -4295817#1 4295817#1 4295817#3" />
    </vehicle>
    <vehicle id="passanger11" type="passenger" depart="16.00" departLane="free">
        <route edges="23508141#1 70205228#0 70205228#1 70205228#2 -70205228#2 -70205228#1 -70205228#0 -23508141#1 -715835444#1 60263960 116556688 43135644#0 715913363#2 1290085525#0 1290085525#1 700440148 378479743#0 378479743#1 75392301#0" />
    </vehicle>
    <vehicle id="passanger12" type="passenger" depart="17.00" departLane="free">
        <route edges="1290085525#1 700440148 700440131 506015829#1 E0 E2 116556686#1 -60263960 715835444#1 23508141#1" />
    </vehicle>
    <vehicle id="passanger13" type="passenger" depart="18.00" departLane="free">
        <route edges="624481020#2 624481020#4 689912267#0 214812786 715913363#2 1290085525#0 1290085525#1 700440148 378479743#0 378479743#1 378479743#2 378479743#3 378479743#4" />
    </vehicle>
    <vehicle id="passanger14" type="passenger" depart="19.00" departLane="free">
        <route edges="700440128 700440129 1290085526#0 150041594#0 56163443#1 700440137 700440134 715913363#2 1290085525#0 1290085525#1 700440148 378479743#0 378479743#1 378479743#2 378479743#3 378479743#4 378479743#5 378479743#6 -1265069358#1 -1265069360#0 1265069359 254075881#1" />
    </vehicle>
    <vehicle id="passanger15" type="passenger" depart="20.00" departLane="free">
        <route edges="4295817#0 4295817#1 4295817#3 -150041551#1 -150041551#0" />
    </vehicle>
    <vehicle id="passanger16" type="passenger" depart="21.00" departLane="free">
        <route edges="-60263960 60263960 116556688 43135644#0 378479740#1 -700440136 -56163443#3 -150041594#1 -1290085526#1 -700440129 -700440128" />
    </vehicle>
    <vehicle id="passanger17" type="passenger" depart="22.00" departLane="free">
        <route edges="-196656222#2 -196656222#1 -196656222#0 -53207957 150041593 196656222#0 196656222#1 196656222#2 700440130#0 700440130#1 700440128 700440129 1290085526#0 150041594#0 56163443#1 700440137 700440134 715913363#2 1290085525#0 1290085525#1 -4144040#4 -4144040#3 -484022097" />
    </vehicle>
    <vehicle id="passanger18" type="passenger" depart="24.00" departLane="free">
        <route edges="395456769#1 492925919 254075881#1 449551311 44973978 506013711#1 4019053#2 -150032770#6 -150032770#5 -150032770#2 -150032770#1 -150032770#0 150032770#0 150032770#1 150032770#2 150032770#5 150032770#6 103958941#0" />
    </vehicle>
    <vehicle id="passanger19" type="passenger" depart="25.00" departLane="free">
        <route edges="1265069359 1265069358#1 -378479743#6 -378479743#5 -378479743#4 -378479743#3 -378479743#2 -378479743#1 -378479743#0 700440131 506015829#1 E0 E2 116556686#1 -60263960 -4195580#2" />
    </vehicle>
    <vehicle id="passanger20" type="passenger" depart="26.00" departLane="free">
        <route edges="-700440130#0 700440130#0 700440130#1 700440128 700440129 1290085526#0 150041594#0 56163443#1 700440137 700440134 116556686#1 -60263960 715835444#1" />
    </vehicle>
    <vehicle id="passanger21" type="passenger" depart="27.00" departLane="free">
        <route edges="4144040#0 4144040#1 4144040#2 4144040#3 4144040#4 700440148 378479743#0 378479743#1 378479743#2 378479743#3" />
    </vehicle>
    <vehicle id="passanger22" type="passenger" depart="28.00" departLane="free">
        <route edges="-4144040#3 4144040#3 4144040#4 700440148 700440131 506015829#1 E0 E2 378479740#1 -700440136 -56163443#3 -150041551#3 -4295817#3 -4295817#1 4295817#1 4295817#3" />
    </vehicle>
    <vehicle id="passanger23" type="passenger" depart="29.00" departLane="free">
        <route edges="-4144040#2 -4144040#1 4144040#1 4144040#2 4144040#3 4144040#4 700440148 700440131 506015829#1 E0 E2 116556686#1" />
    </vehicle>
    <vehicle id="passanger24" type="passenger" depart="30.00" departLane="free">
        <route edges="E0 E2 378479740#1 -700440136 -56163443#3 -150041594#1 -1290085526#1 -700440129 -700440128 -700440130#1 -700440130#0 -196656222#2 -196656222#1 -196656222#0 -53207957 150041579#0 150041579#2 150041578 150041580 149518769#1 38115188" />
    </vehicle>
    <vehicle id="passanger25" type="passenger" depart="32.00" departLane="free">
        <route edges="689912267#0 214812786 715913363#2 1290085525#0 1290085525#1 700440148 700440131 506015829#1" />
    </vehicle>
    <vehicle id="passanger26" type="passenger" depart="33.00" departLane="free">
        <route edges="-60263960 60263960 116556688 43135644#0 715913363#2 1290085525#0 1290085525#1 700440148 378479743#0 378479743#1 378479743#2 378479743#3 378479743#4 378479743#5 378479743#6 700236092#0 700236092#1 700236093 44973978 506013711#1 4019053#2 -150032770#6 -150032770#5 -150032770#2" />
    </vehicle>
    <vehicle id="passanger27" type="passenger" depart="34.00" departLane="free">
        <route edges="-715835444#3 -715835444#2 -715835444#1 60263960 116556688 43135644#0 214812788#2 73372559 -689912267#0 -624481020#4 -624481020#3 -624481020#1" />
    </vehicle>
    <vehicle id="passanger28" type="passenger" depart="35.00" departLane="free">
        <route edges="-4295817#3 -4295817#1 -23508224 -715835444#5 -715835444#4 -715835444#3 -715835444#2 715835444#2" />
    </vehicle>
    <vehicle id="passanger29" type="passenger" depart="36.00" departLane="free">
        <route edges="700440130#0 700440130#1 700440128 700440129 1290085526#0 150041594#0 56163443#1 700440137 700440134 116556686#1 -60263960 715835444#1 23508141#1 70205228#0 70205228#1 70205228#2 -70205228#2 -70205228#1 -70205228#0" />
    </vehicle>
    <vehicle id="passanger30" type="passenger" depart="37.00" departLane="free">
        <route edges="4144040#1 4144040#2 -4144040#2 -4144040#1 4195580#0 4195580#1 4195580#2 60263960 116556688 43135644#0 715913363#2 1290085525#0" />
    </vehicle>
    <vehicle id="passanger31" type="passenger" depart="38.00" departLane="free">
        <route edges="700440148 700440131 506015829#1 E0 E2 378479740#1 -700440136 -56163443#3 -150041594#1 -1290085526#1 -700440129 -700440128 -700440130#1 -700440130#0 -196656222#2 -196656222#1 -196656222#0 -53207957 150041579#0 150041579#2 150041578" />
    </vehicle>
    <vehicle id="passanger32" type="passenger" depart="39.00" departLane="free">
        <route edges="-700440129 700440129 1290085526#0 150041594#0 56163443#1 700440137 -700440136 -56163443#3" />
    </vehicle>
    <vehicle id="passanger33" type="passenger" depart="41.00" departLane="free">
        <route edges="378479743#2 378479743#3 -23248109#1 23248109#1 -378479743#3 -378479743#2 -378479743#1 -378479743#0 700440131 506015829#1 E0 E2 378479740#1 -700440136 -56163443#3 56163443#1 700440137" />
    </vehicle>
    <vehicle id="passanger34" type="passenger" depart="43.00" departLane="free">
        <route edges="E2 378479740#1 -700440136 -56163443#3 -150041594#1 -1290085526#1 -700440129 -700440128 -700440130#1 -700440130#0 -196656222#2 -196656222#1 -196656222#0 -53207957 150041593 196656222#0 196656222#1 196656222#2" />
    </vehicle>
    <vehicle id="passanger35" type="passenger" depart="44.00" departLane="free">
        <route edges="-23248109#0 23248109#0 23248109#1 -378479743#3 -378479743#2 -378479743#1 -378479743#0 700440131 506015829#1 E0 E2 378479740#1 -700440136 -56163443#3 -150041551#3 -150041551#1 -150041551#0" />
    </vehicle>
    <vehicle id="passanger36" type="passenger" depart="45.00" departLane="free">
        <route edges="-23508141#1 -715835444#1 60263960 116556688 43135644#0 715913363#2 1290085525#0 1290085525#1 700440148 378479743#0 378479743#1 378479743#2 378479743#3 378479743#4 378479743#5 378479743#6" />
    </vehicle>
    <vehicle id="passanger37" type="passenger" depart="46.00" departLane="free">
        <route edges="56163443#1 700440137 700440134 715913363#2 1290085525#0 1290085525#1 700440148 378479743#0 378479743#1 378479743#2 378479743#3 378479743#4 378479743#5 378479743#6 700236092#0 700236092#1 700236093 44973978 506013711#1 4019053#2 -150032770#6 -150032770#5 -150032770#2 -150032770#1 -150032770#0 150032770#0 150032770#1" />
    </vehicle>
    <vehicle id="passanger38" type="passenger" depart="47.00" departLane="free">
        <route edges="-182982119#1 56163443#1 700440137 700440134 116556686#1 -60263960 60263960 116556688" />
    </vehicle>
    <vehicle id="passanger39" type="passenger" depart="48.00" departLane="free">
        <route edges="E2 378479740#1 700440134 715913363#2 1290085525#0 1290085525#1 700440148 378479743#0 378479743#1 75392301#0 75392301#1 23015831" />
    </vehicle>
    <vehicle id="passanger40" type="passenger" depart="49.00" departLane="free">
        <route edges="73372559 -689912267#0 -624481020#4 -624481020#3 -624481020#1 -624481020#0 624481020#0 624481020#1 624481020#2 624481020#4 689912267#0 214812786 378479740#1 -700440136 -56163443#3 -150041594#1 -1290085526#1 -700440129 -700440128 -700440130#1 -700440130#0 700440130#0 700440130#1 700440128" />
    </vehicle>
    <vehicle id="passanger41" type="passenger" depart="51.00" departLane="free">
        <route edges="4195580#1 4195580#2 60263960 116556688 43135644#0 715913363#2 1290085525#0 1290085525#1 700440148 378479743#0 378479743#1 378479743#2 378479743#3 -23248109#1 23248109#1" />
    </vehicle>
    <vehicle id="passanger42" type="passenger" depart="52.00" departLane="free">
        <route edges="-700440130#0 -196656222#2 -196656222#1 -196656222#0 -53207957 150041579#0 150041579#2 150041578 150041580 149518769#1 38115188" />
    </vehicle>
    <vehicle id="passanger43" type="passenger" depart="53.00" departLane="free">
        <route edges="-23508224 -715835444#5 -715835444#4 150041551#0 150041551#1 150041551#2 56163443#1 700440137 700440134 715913363#2 1290085525#0 1290085525#1 700440148 378479743#0 378479743#1 378479743#2 378479743#3 378479743#4 378479743#5 378479743#6 700236092#0 700236092#1 700236093 44973978 506013711#1 4019053#2 -150032770#6 -150032770#5 -150032770#2 -150032770#1 -150032770#0 150032770#0 150032770#1 150032770#2 150032770#5" />
    </vehicle>
    <vehicle id="passanger44" type="passenger" depart="54.00" departLane="free">
        <route edges="150041579#0 150041579#2 150041578 150041580 149518769#1 38115188 150041593 196656222#0 196656222#1 196656222#2 700440130#0 700440130#1 700440128 700440129 1290085526#0 150041594#0 -150041551#3 -150041551#1 -150041551#0 715835444#4" />
    </vehicle>
    <vehicle id="passanger45" type="passenger" depart="55.00" departLane="free">
        <route edges="700440130#0 700440130#1 700440128 700440129 1290085526#0 150041594#0 56163443#1 700440137 700440134 214812788#2 73372559 -689912267#0 -624481020#4 -624481020#3 -624481020#1" />
    </vehicle>
    <vehicle id="passanger46" type="passenger" depart="56.00" departLane="free">
        <route edges="214812786 715913363#2 1290085525#0 1290085525#1 -4144040#4 -4144040#3 -4144040#2 -4144040#1" />
    </vehicle>
    <vehicle id="passanger47" type="passenger" depart="57.00" departLane="free">
        <route edges="700440148 700440131 506015829#1 E0 E2 378479740#1 -700440136 -56163443#3 -150041594#1 -1290085526#1 -700440129 700440129" />
    </vehicle>
    <vehicle id="passanger48" type="passenger" depart="58.00" departLane="free">
        <route edges="-70205228#2 -70205228#1 -70205228#0 -23508141#1 715835444#2 715835444#3 150041551#0 150041551#1 150041551#2 -150041594#1 -1290085526#1 -700440129 -700440128 -700440130#1 -700440130#0 -196656222#2 -196656222#1 -196656222#0 -53207957 150041579#0 150041579#2 150041578 150041580 149518769#1 38115188" />
    </vehicle>
    <vehicle id="passanger49" type="passenger" depart="59.00" departLane="free">
        <route edges="378479743#6 -1265069358#1 -1265069360#0 1265069359 1265069358#1 -378479743#6 -378479743#5 -378479743#4" />
    </vehicle>
    <vehicle id="passanger50" type="passenger" depart="60.00" departLane="free">
        <route edges="506015829#1 E0 E2 378479740#1 700440134 715913363#2 1290085525#0 1290085525#1 700440148 378479743#0 378479743#1 378479743#2 378479743#3 -23248109#1 23248109#1" />
    </vehicle>
    <vehicle id="passanger51" type="passenger" depart="61.00" departLane="free">
        <route edges="53207959#1 53207959#3 150041593 196656222#0 196656222#1 196656222#2 700440130#0 700440130#1 700440128 700440129 1290085526#0 150041594#0 56163443#1 700440137 700440134 715913363#2 1290085525#0 1290085525#1 700440148 378479743#0 378479743#1 75392301#0 75392301#1 23015831" />
    </vehicle>
    <vehicle id="passanger52" type="passenger" depart="62.00" departLane="free">
        <route edges="-1265069358#1 -1265069360#0 1265069359 1265069358#1 -378479743#6 -378479743#5 -378479743#4 -378479743#3 -378479743#2 -378479743#1 -378479743#0 700440131 506015829#1 E0 E2 116556686#1 -60263960 715835444#1 23508141#1 70205228#0 70205228#1 70205228#2 -70205228#2" />
    </vehicle>
    <vehicle id="passanger53" type="passenger" depart="64.00" departLane="free">
        <route edges="700440130#1 700440128 700440129 1290085526#0 150041594#0 56163443#1 700440137 700440134 214812788#2 73372559 -689912267#0 -624481020#4 -624481020#3 -624481020#1 -624481020#0 624481020#0 624481020#1 624481020#2" />
    </vehicle>
    <vehicle id="passanger54" type="passenger" depart="65.00" departLane="free">
        <route edges="-715835444#2 715835444#2 715835444#3 150041551#0 150041551#1 150041551#2 -150041551#3" />
    </vehicle>
    <vehicle id="passanger55" type="passenger" depart="66.00" departLane="free">
        <route edges="700440130#1 700440128 700440129 1290085526#0 150041594#0 56163443#1 700440137 700440134 116556686#1 -60263960 715835444#1 715835444#2 715835444#3" />
    </vehicle>
    <vehicle id="passanger56" type="passenger" depart="67.00" departLane="free">
        <route edges="-23015831 4195610#0 4195610#2 484022097 4144040#3 4144040#4 700440148 700440131 506015829#1 E0 E2 378479740#1 -700440136 -56163443#3 -150041594#1 -1290085526#1 -700440129 -700440128 -700440130#1 -700440130#0 -196656222#2 -196656222#1 -196656222#0 -53207957 150041593" />
    </vehicle>
    <vehicle id="passanger57" type="passenger" depart="69.00" departLane="free">
        <route edges="506015829#1 E0 E2 378479740#1 -700440136 -56163443#3 -150041594#1 -1290085526#1 -700440129 4295817#0 -23508224" />
    </vehicle>
    <vehicle id="passanger58" type="passenger" depart="70.00" departLane="free">
        <route edges="150041594#0 56163443#1 700440137 700440134 116556686#1 -60263960 715835444#1 23508141#1" />
    </vehicle>
    <vehicle id="passanger59" type="passenger" depart="71.00" departLane="free">
        <route edges="-700440129 -700440128 -700440130#1 -700440130#0 700440130#0" />
    </vehicle>
    <vehicle id="passanger60" type="passenger" depart="72.00" departLane="free">
        <route edges="150041551#0 150041551#1 150041551#2 56163443#1 700440137 700440134 116556686#1 -60263960 -4195580#2" />
    </vehicle>
    <vehicle id="passanger61" type="passenger" depart="74.00" departLane="free">
        <route edges="-4295817#1 -4295817#0 700440129 1290085526#0 150041594#0 56163443#1 700440137 -700440136" />
    </vehicle>
    <vehicle id="passanger62" type="passenger" depart="76.00" departLane="free">
        <route edges="150041551#2 56163443#1 700440137 700440134 214812788#2 73372559 -689912267#0 -624481020#4 -624481020#3 -624481020#1 -624481020#0 624481020#0 624481020#1 624481020#2 624481020#4 689912267#0 214812786" />
    </vehicle>
    <vehicle id="passanger63" type="passenger" depart="77.00" departLane="free">
        <route edges="-378479743#0 700440131 506015829#1 E0 E2 378479740#1 -700440136 -56163443#3 -150041551#3 -4295817#3" />
    </vehicle>
    <vehicle id="passanger64" type="passenger" depart="79.00" departLane="free">
        <route edges="-60263960 715835444#1 715835444#2 715835444#3 150041551#0 150041551#1 -4295817#3 -4295817#1" />
    </vehicle>
    <vehicle id="passanger65" type="passenger" depart="80.00" departLane="free">
        <route edges="-196656222#0 -53207957 150041593 196656222#0 196656222#1 196656222#2 700440130#0 700440130#1 700440128 700440129 1290085526#0 150041594#0 56163443#1 700440137 700440134 715913363#2 1290085525#0 1290085525#1 700440148 378479743#0 378479743#1 378479743#2 378479743#3 378479743#4 378479743#5 378479743#6" />
    </vehicle>
    <vehicle id="passanger66" type="passenger" depart="83.00" departLane="free">
        <route edges="-624481020#1 -624481020#0 624481020#0 624481020#1 624481020#2 624481020#4 689912267#0 214812786 116556686#1 -60263960 -4195580#2 -4195580#1 -4195580#0 4144040#1" />
    </vehicle>
    <vehicle id="passanger67" type="passenger" depart="84.00" departLane="free">
        <route edges="-484022097 484022097 4144040#3 4144040#4 700440148 378479743#0 378479743#1 378479743#2 378479743#3 -23248109#1 23248109#1 -378479743#3 -378479743#2 -378479743#1 -378479743#0" />
    </vehicle>
    <vehicle id="passanger68" type="passenger" depart="87.00" departLane="free">
        <route edges="59591195#2 73372559 -689912267#0 -624481020#4 -624481020#3 -624481020#1 -624481020#0 624481020#0 624481020#1 624481020#2 624481020#4 689912267#0 214812786 715913363#2 1290085525#0 1290085525#1 -4144040#4" />
    </vehicle>
    <vehicle id="passanger69" type="passenger" depart="88.00" departLane="free">
        <route edges="-23248109#1 23248109#1 378479743#4 378479743#5 378479743#6 700236092#0 700236092#1 700236093 44973978 506013711#1 4019053#2 -150032770#6 -150032770#5 -150032770#2 -150032770#1 -150032770#0 150032770#0 150032770#1 150032770#2 150032770#5" />
    </vehicle>
    <vehicle id="passanger70" type="passenger" depart="89.00" departLane="free">
        <route edges="150041551#0 150041551#1 150041551#2 -150041594#1 -1290085526#1 -700440129 -700440128 -700440130#1 -700440130#0 -196656222#2 -196656222#1 -196656222#0 -53207957 150041579#0" />
    </vehicle>
    <vehicle id="passanger71" type="passenger" depart="91.00" departLane="free">
        <route edges="881694399 -881694399 -182982119#1 56163443#1 700440137 700440134 715913363#2 1290085525#0 1290085525#1 700440148 378479743#0 378479743#1 75392301#0 75392301#1 23015831 -23015831" />
    </vehicle>
    <vehicle id="passanger72" type="passenger" depart="93.00" departLane="free">
        <route edges="700440128 700440129 1290085526#0 150041594#0 56163443#1 700440137 -700440136 -56163443#3" />
    </vehicle>
    <vehicle id="passanger73" type="passenger" depart="94.00" departLane="free">
        <route edges="-4195580#2 -4195580#1 -4195580#0 4195580#0 4195580#1 4195580#2 715835444#1 715835444#2 715835444#3 150041551#0 150041551#1" />
    </vehicle>
    <vehicle id="passanger74" type="passenger" depart="96.00" departLane="free">
        <route edges="-624481020#4 -624481020#3 -624481020#1 -624481020#0 624481020#0 624481020#1 624481020#2 624481020#4 689912267#0 214812786 116556686#1 -60263960 715835444#1 23508141#1 70205228#0 70205228#1" />
    </vehicle>
    <vehicle id="passanger75" type="passenger" depart="97.00" departLane="free">
        <route edges="150041565 700440130#0 700440130#1 700440128" />
    </vehicle>
    <vehicle id="passanger76" type="passenger" depart="98.00" departLane="free">
        <route edges="24509268 700440138 700440139 -378479743#6 -378479743#5 -378479743#4 -378479743#3 -378479743#2 -378479743#1 -378479743#0 700440131 506015829#1 E0 E2 378479740#1 -700440136 -56163443#3 -150041551#3 -150041551#1" />
    </vehicle>
    <vehicle id="passanger77" type="passenger" depart="99.00" departLane="free">
        <route edges="E2 59591195#0 59591195#1 59591195#2 73372559 -689912267#0 -624481020#4 -624481020#3 -624481020#1 -624481020#0 624481020#0 624481020#1 624481020#2 624481020#4" />
    </vehicle>
    <vehicle id="passanger78" type="passenger" depart="100.00" departLane="free">
        <route edges="73372559 -689912267#0 -624481020#4 -624481020#3 -624481020#1 -624481020#0 624481020#0 624481020#1 624481020#2 624481020#4 689912267#0 214812786 116556686#1 -60263960 715835444#1 23508141#1 70205228#0 70205228#1" />
    </vehicle>
    <vehicle id="passanger79" type="passenger" depart="102.00" departLane="free">
        <route edges="196656222#0 196656222#1 196656222#2 700440130#0 700440130#1 700440128 4295817#0 -4295817#0" />
    </vehicle>
    <vehicle id="passanger80" type="passenger" depart="104.00" departLane="free">
        <route edges="1290085525#1 700440148 700440131 506015829#1 E0 E2 378479740#1 -700440136 -56163443#3 182982119#0 881694399" />
    </vehicle>
    <vehicle id="passanger81" type="passenger" depart="106.00" departLane="free">
        <route edges="150041579#0 150041579#2 150041578 150041580 149518769#1 38115188 150041593 196656222#0 196656222#1 196656222#2 700440130#0 700440130#1 700440128 700440129 1290085526#0 150041594#0 56163443#1 700440137 700440134 715913363#2 1290085525#0 1290085525#1 700440148 378479743#0 378479743#1 378479743#2 378479743#3 378479743#4 378479743#5 378479743#6 700236092#0 700236092#1 700236093 44973978 506013711#1 4019053#2 -150032770#6 -150032770#5 -150032770#2 -150032770#1 -150032770#0 150032770#0 150032770#1" />
    </vehicle>
    <vehicle id="passanger82" type="passenger" depart="107.00" departLane="free">
        <route edges="715835444#5 23508224 -4295817#0 700440129 1290085526#0 150041594#0 56163443#1 700440137 700440134 715913363#2 1290085525#0 1290085525#1 700440148 700440131 506015829#1 E0 E2" />
    </vehicle>
    <vehicle id="passanger83" type="passenger" depart="109.00" departLane="free">
        <route edges="-378479743#6 -378479743#5 -378479743#4 -378479743#3 -378479743#2 -378479743#1 -378479743#0 700440131 506015829#1 E0 E2 378479740#1 -700440136 -56163443#3 -150041594#1 -1290085526#1 -700440129 -700440128 -700440130#1 -700440130#0" />
    </vehicle>
    <vehicle id="passanger84" type="passenger" depart="110.00" departLane="free">
        <route edges="73372559 -689912267#0 -624481020#4 -624481020#3 -624481020#1 -624481020#0 624481020#0 624481020#1 624481020#2 624481020#4 689912267#0 214812786 715913363#2 1290085525#0 1290085525#1 700440148 378479743#0 378479743#1 378479743#2 378479743#3 378479743#4 378479743#5 378479743#6 -1265069358#1 -1265069360#0 1265069359 254075881#1" />
    </vehicle>
    <vehicle id="passanger85" type="passenger" depart="112.00" departLane="free">
        <route edges="-150041594#1 -1290085526#1 -700440129 700440129 1290085526#0 150041594#0 56163443#1 700440137 700440134 715913363#2 1290085525#0 1290085525#1 700440148 378479743#0 378479743#1 378479743#2 378479743#3 378479743#4 378479743#5 378479743#6 700236092#0 700236092#1 700236093 44973978 506013711#1 35574708#1" />
    </vehicle>
    <vehicle id="passanger86" type="passenger" depart="113.00" departLane="free">
        <route edges="214812786 715913363#2 1290085525#0 1290085525#1 700440148 378479743#0 378479743#1 378479743#2 378479743#3 378479743#4 378479743#5 378479743#6 700236092#0 700236092#1" />
    </vehicle>
    <vehicle id="passanger87" type="passenger" depart="114.00" departLane="free">
        <route edges="-4144040#1 4195580#0 4195580#1 4195580#2 715835444#1 715835444#2 715835444#3 715835444#4 715835444#5" />
    </vehicle>
    <vehicle id="passanger88" type="passenger" depart="115.00" departLane="free">
        <route edges="-196656222#2 -196656222#1 -196656222#0 -53207957 150041593 196656222#0 196656222#1 196656222#2 700440130#0 700440130#1 700440128 700440129 1290085526#0 150041594#0 56163443#1 700440137 700440134 715913363#2 1290085525#0 1290085525#1 -4144040#4 -4144040#3" />
    </vehicle>
    <vehicle id="passanger89" type="passenger" depart="116.00" departLane="free">
        <route edges="378479743#4 378479743#5 378479743#6 -1265069358#1 -1265069360#0 1265069359 1265069358#1 -378479743#6 -378479743#5 -378479743#4 -378479743#3 -378479743#2 75392301#0 75392301#1 4195610#0 4195610#2 484022097 -4144040#2 -4144040#1 4144040#1 4144040#2" />
    </vehicle>
    <vehicle id="passanger90" type="passenger" depart="117.00" departLane="free">
        <route edges="-624481020#1 -624481020#0 624481020#0 624481020#1 624481020#2 624481020#4 689912267#0 214812786 116556686#1 -60263960 715835444#1 23508141#1 70205228#0 70205228#1 70205228#2 -70205228#2 -70205228#1 -70205228#0 -23508141#1" />
    </vehicle>
    <vehicle id="passanger91" type="passenger" depart="118.00" departLane="free">
        <route edges="700440134 715913363#2 1290085525#0 1290085525#1 700440148 700440131 506015829#1 E0 E2 378479740#1 -700440136 -56163443#3" />
    </vehicle>
    <vehicle id="passanger92" type="passenger" depart="119.00" departLane="free">
        <route edges="378479743#4" />
    </vehicle>
    <vehicle id="passanger93" type="passenger" depart="121.00" departLane="free">
        <route edges="23248109#1 -378479743#3 -378479743#2 -378479743#1 -378479743#0 700440131 506015829#1 E0 E2 116556686#1 -60263960 715835444#1" />
    </vehicle>
    <vehicle id="passanger94" type="passenger" depart="122.00" departLane="free">
        <route edges="-4295817#1 -4295817#0 4295817#0" />
    </vehicle>
    <vehicle id="passanger95" type="passenger" depart="123.00" departLane="free">
        <route edges="-624481020#1 -624481020#0 624481020#0 624481020#1 624481020#2 624481020#4 689912267#0 214812786 715913363#2 1290085525#0" />
    </vehicle>
    <vehicle id="passanger96" type="passenger" depart="124.00" departLane="free">
        <route edges="4144040#4 700440148 700440131 506015829#1 E0 E2 378479740#1 -700440136 -56163443#3 -150041594#1 -1290085526#1 -700440129 -700440128 -700440130#1 -700440130#0" />
    </vehicle>
    <vehicle id="passanger97" type="passenger" depart="125.00" departLane="free">
        <route edges="-715835444#3 -715835444#2 -715835444#1 -4195580#2 -4195580#1 -4195580#0 4144040#1 4144040#2 -484022097 484022097" />
    </vehicle>
    <vehicle id="passanger98" type="passenger" depart="126.00" departLane="free">
        <route edges="-196656222#1 -196656222#0 -53207957 150041579#0 150041579#2 150041578" />
    </vehicle>
    <vehicle id="passanger99" type="passenger" depart="127.00" departLane="free">
        <route edges="E2" />
    </vehicle>
    <vehicle id="passanger100" type="passenger" depart="128.00" departLane="free">
        <route edges="-196656222#1 -196656222#0 -53207957 150041593 196656222#0 196656222#1 196656222#2 700440130#0 700440130#1 700440128 4295817#0 -4295817#0" />
    </vehicle>
    <vehicle id="passanger101" type="passenger" depart="129.00" departLane="free">
        <route edges="-700440129 700440129 1290085526#0 150041594#0 56163443#1 700440137 700440134 116556686#1 -60263960 715835444#1" />
    </vehicle>
    <vehicle id="passanger102" type="passenger" depart="130.00" departLane="free">
        <route edges="700440130#1" />
    </vehicle>
    <vehicle id="passanger103" type="passenger" depart="131.00" departLane="free">
        <route edges="1265069359 1265069358#1 -378479743#6 -378479743#5" />
    </vehicle>