<?xml version="1.0" encoding="UTF-8"?>

<!-- generated on 2024-10-21 22:13:20.642456 by randomTrips.py UNKNOWN
<configuration>
    <net-file value="/opt/homebrew/opt/sumo/share/sumo/tools/2024-10-08-17-29-51/241018_A034.net.xml"/>
    <route-file value="241021_random_route.rou.xml"/>
    <vehicle-class value="passenger"/>
    <verbose value="True"/>
    <insertion-density value="40.0"/>
    <random-depart value="True"/>
</configuration>
-->

<!-- generated on 2024-10-21 22:13:20 by Eclipse SUMO duarouter Version 1.20.0
<configuration xmlns:xsi="http://www.w3.org/2001/XMLSchema-instance" xsi:noNamespaceSchemaLocation="http://sumo.dlr.de/xsd/duarouterConfiguration.xsd">

    <input>
        <net-file value="/opt/homebrew/opt/sumo/share/sumo/tools/2024-10-08-17-29-51/241018_A034.net.xml"/>
        <route-files value="trips.trips.xml"/>
    </input>

    <output>
        <output-file value="241021_random_route.rou.xml"/>
        <alternatives-output value="NUL"/>
    </output>

    <time>
        <begin value="0.0"/>
        <end value="3600.0"/>
    </time>

    <report>
        <verbose value="true"/>
        <ignore-errors value="true"/>
        <no-step-log value="true"/>
    </report>

</configuration>
-->

<routes xmlns:xsi="http://www.w3.org/2001/XMLSchema-instance" xsi:noNamespaceSchemaLocation="http://sumo.dlr.de/xsd/routes_file.xsd">
    <vType id="passenger" vClass="passenger"/>
    <vehicle id="0" type="passenger" depart="1.63">
        <route edges="484022097 -4144040#2 -4144040#1 4195580#0 4195580#1 4195580#2 60263960 116556688 43135644#0 715913363#2"/>
    </vehicle>
    <vehicle id="1" type="passenger" depart="2.74">
        <route edges="-700440130#0 700440130#0 700440130#1 700440128 700440129 1290085526#0 150041594#0 56163443#1 700440137 700440134 715913363#2 1290085525#0 1290085525#1 700440148 700440131 506015829#1 E0 E2 59591195#0 59591195#1"/>
    </vehicle>
    <vehicle id="2" type="passenger" depart="14.34">
        <route edges="23508141#1 70205228#0 70205228#1 70205228#2 -70205228#2 -70205228#1 -70205228#0 -23508141#1 715835444#2 715835444#3 150041551#0 150041551#1 150041551#2 -150041594#1 -1290085526#1 -700440129 -700440128 -700440130#1 -700440130#0 -196656222#2 -196656222#1 -196656222#0 -53207957 150041593"/>
    </vehicle>
    <vehicle id="3" type="passenger" depart="30.00">
        <route edges="150041551#2 -150041551#3 -4295817#3 -4295817#1 4295817#1 4295817#3"/>
    </vehicle>
    <vehicle id="4" type="passenger" depart="60.13">
        <route edges="-700440130#0 700440130#0 700440130#1 700440128 700440129 1290085526#0 150041594#0 56163443#1 700440137 700440134 715913363#2 1290085525#0 1290085525#1 700440148 378479743#0 378479743#1 378479743#2 378479743#3 378479743#4 378479743#5 378479743#6 700236092#0 700236092#1"/>
    </vehicle>
    <vehicle id="5" type="passenger" depart="79.25">
        <route edges="624481020#2 624481020#4 689912267#0 214812786 378479740#1 -700440136 -56163443#3 -150041594#1 -1290085526#1 -700440129 -700440128 -700440130#1 -700440130#0 -196656222#2 -196656222#1"/>
    </vehicle>
    <vehicle id="6" type="passenger" depart="79.28">
        <route edges="700440130#1 700440128 -700440128 -700440130#1 -700440130#0 -196656222#2 -196656222#1 -196656222#0 -53207957"/>
    </vehicle>
    <vehicle id="7" type="passenger" depart="83.68">
        <route edges="150041580 149518769#1 38115188 150041593 196656222#0 196656222#1 196656222#2 700440130#0 700440130#1 700440128 700440129 1290085526#0 150041594#0 56163443#1 700440137 700440134 715913363#2 1290085525#0 1290085525#1 700440148 378479743#0 378479743#1 378479743#2 378479743#3"/>
    </vehicle>
    <vehicle id="8" type="passenger" depart="86.55">
        <route edges="1290085525#1 700440148 378479743#0 378479743#1 378479743#2 378479743#3 378479743#4 378479743#5 378479743#6 700236092#0 700236092#1 700236093 44973978 506013711#1 4019053#2 -150032770#6 -150032770#5 -150032770#2"/>
    </vehicle>
    <vehicle id="10" type="passenger" depart="102.48">
        <route edges="-484022097 484022097 4144040#3 4144040#4 700440148 700440131 506015829#1 E0 E2 378479740#1 -700440136 -56163443#3 56163443#1"/>
    </vehicle>
    <vehicle id="12" type="passenger" depart="127.43">
        <route edges="4295817#0 -4295817#0 700440129 1290085526#0 150041594#0 56163443#1 700440137 700440134 214812788#2 73372559 -689912267#0 -624481020#4"/>
    </vehicle>
    <vehicle id="13" type="passenger" depart="130.72">
        <route edges="-1290085526#1 -700440129 4295817#0 -23508224 -715835444#5 -715835444#4 -715835444#3 -715835444#2 715835444#2 715835444#3"/>
    </vehicle>
    <vehicle id="14" type="passenger" depart="156.67">
        <route edges="-23015831 4195610#0 4195610#2 484022097 4144040#3 4144040#4 700440148 700440131 506015829#1 E0 E2 378479740#1 -700440136 -56163443#3 -150041594#1 -1290085526#1 -700440129 4295817#0"/>
    </vehicle>
    <vehicle id="18" type="passenger" depart="181.53">
        <route edges="-23248109#0 23248109#0 23248109#1 -378479743#3 -378479743#2 -378479743#1 -378479743#0 700440131 506015829#1 E0 E2 378479740#1 -700440136 -56163443#3 -150041551#3 -4295817#3 -4295817#1"/>
    </vehicle>
    <vehicle id="19" type="passenger" depart="189.57">
        <route edges="4195610#0 4195610#2 484022097 4144040#3 4144040#4 700440148 700440131 506015829#1 E0 E2 378479740#1 -700440136 -56163443#3 -150041594#1 -1290085526#1 -700440129 -700440128 -700440130#1"/>
    </vehicle>
    <vehicle id="20" type="passenger" depart="192.72">
        <route edges="378479743#1 378479743#2 378479743#3 -23248109#1 23248109#1 -378479743#3 -378479743#2 -378479743#1 -378479743#0 700440131 506015829#1 E0 E2 378479740#1 -700440136 -56163443#3 -150041594#1 -1290085526#1 -700440129 -700440128 -700440130#1 -700440130#0 -196656222#2 -196656222#1 -196656222#0 -53207957 150041579#0 150041579#2"/>
    </vehicle>
    <vehicle id="21" type="passenger" depart="205.09">
        <route edges="23508141#0 -715835444#1 60263960 116556688 43135644#0 715913363#2 1290085525#0 1290085525#1 700440148 378479743#0 378479743#1 378479743#2 378479743#3 378479743#4 378479743#5 378479743#6 700236092#0 700236092#1 700236093 44973978 506013711#1 4019053#2 -150032770#6 -150032770#5 -150032770#2 -150032770#1 -150032770#0 150032770#0 150032770#1 150032770#2"/>
    </vehicle>
    <vehicle id="22" type="passenger" depart="205.30">
        <route edges="492925920#0 492925920#1 395456768 395456769#0 395456769#1 24509268 700440138 700440139 -378479743#6 -378479743#5 -378479743#4 -378479743#3 -378479743#2 -378479743#1 -378479743#0 700440131 506015829#1 E0 E2 116556686#1 -60263960 715835444#1 -715835444#1"/>
    </vehicle>
    <vehicle id="23" type="passenger" depart="205.38">
        <route edges="4295817#0 -4295817#0 700440129 1290085526#0 150041594#0 56163443#1 700440137 700440134 214812788#2 73372559 -689912267#0 -624481020#4 -624481020#3"/>
    </vehicle>
    <vehicle id="24" type="passenger" depart="207.33">
        <route edges="-689912267#0 -624481020#4 -624481020#3 -624481020#1 -624481020#0 624481020#0 624481020#1 624481020#2 624481020#4 689912267#0 214812786 116556686#1 -60263960 715835444#1 23508141#1 70205228#0 70205228#1 70205228#2 -70205228#2 -70205228#1 -70205228#0 -23508141#1"/>
    </vehicle>
    <vehicle id="25" type="passenger" depart="229.65">
        <route edges="-4195580#2 -4195580#1 -4195580#0 4195580#0 4195580#1 4195580#2 715835444#1 23508141#1 70205228#0 70205228#1 70205228#2 -70205228#2 -70205228#1 -70205228#0 -23508141#1"/>
    </vehicle>
    <vehicle id="27" type="passenger" depart="239.66">
        <route edges="-4195580#1 -4195580#0 4195580#0 4195580#1 4195580#2 715835444#1 715835444#2 715835444#3 150041551#0 150041551#1 -4295817#3 -4295817#1 -4295817#0"/>
    </vehicle>
    <vehicle id="28" type="passenger" depart="240.50">
        <route edges="196656222#0 196656222#1 196656222#2 700440130#0 700440130#1 700440128 4295817#0 4295817#1"/>
    </vehicle>
    <vehicle id="29" type="passenger" depart="241.47">
        <route edges="75392301#0 75392301#1 4195610#0 4195610#2 484022097 -4144040#2 -4144040#1 4195580#0 4195580#1 4195580#2 60263960 116556688 43135644#0 214812788#2"/>
    </vehicle>
    <vehicle id="30" type="passenger" depart="248.04">
        <route edges="-700440136 -56163443#3 56163443#1 700440137 700440134 715913363#2 1290085525#0 1290085525#1 700440148 378479743#0 378479743#1 75392301#0 75392301#1 23015831 -23015831"/>
    </vehicle>
    <vehicle id="31" type="passenger" depart="249.32">
        <route edges="-4195580#2 -4195580#1 -4195580#0 4195580#0 4195580#1 4195580#2 715835444#1 715835444#2 715835444#3 150041551#0 150041551#1 -4295817#3"/>
    </vehicle>
    <vehicle id="32" type="passenger" depart="260.45">
        <route edges="-4195580#0 4195580#0 4195580#1 4195580#2 60263960 116556688 43135644#0 378479740#1 -700440136 -56163443#3 -150041594#1 -1290085526#1"/>
    </vehicle>
    <vehicle id="33" type="passenger" depart="262.70">
        <route edges="23508141#1 70205228#0 70205228#1 70205228#2 -70205228#2 -70205228#1 -70205228#0 -23508141#1 -715835444#1 60263960 116556688 43135644#0 214812788#2 73372559 -689912267#0 -624481020#4"/>
    </vehicle>
    <vehicle id="34" type="passenger" depart="263.35">
        <route edges="75392301#0 75392301#1 4195610#0 4195610#2 484022097 -4144040#2 -4144040#1 4195580#0 4195580#1 4195580#2 715835444#1 -23508141#0 23508142#0"/>
    </vehicle>
    <vehicle id="35" type="passenger" depart="271.87">
        <route edges="4195610#2 484022097 4144040#3 4144040#4 700440148 700440131 506015829#1 E0 E2 378479740#1 -700440136 -56163443#3 -150041594#1 -1290085526#1 -700440129 4295817#0 -23508224"/>
    </vehicle>
    <vehicle id="36" type="passenger" depart="276.83">
        <route edges="700440129 1290085526#0 150041594#0"/>
    </vehicle>
    <vehicle id="38" type="passenger" depart="280.76">
        <route edges="150041593 196656222#0 196656222#1 196656222#2 700440130#0 700440130#1 700440128 700440129 1290085526#0 150041594#0 56163443#1 700440137 700440134 715913363#2 1290085525#0 1290085525#1 700440148 378479743#0 378479743#1 378479743#2 378479743#3 378479743#4 378479743#5 378479743#6 700236092#0 700236092#1 700236093 44973978 506013711#1 4019053#2 -150032770#6 -150032770#5 -150032770#2 -150032770#1 -150032770#0 150032770#0 150032770#1 150032770#2 150032770#5 150032770#6"/>
    </vehicle>
    <vehicle id="39" type="passenger" depart="284.69">
        <route edges="-4195580#1 -4195580#0 4195580#0 4195580#1 4195580#2 715835444#1 715835444#2 715835444#3 150041551#0 150041551#1 -150041551#1"/>
    </vehicle>
    <vehicle id="40" type="passenger" depart="284.82">
        <route edges="715835444#2 715835444#3 150041551#0 150041551#1 150041551#2 -150041594#1 -1290085526#1 -700440129 -700440128 -700440130#1 -700440130#0 -196656222#2 -196656222#1 -196656222#0 -53207957 150041579#0 150041579#2 150041578 150041580"/>
    </vehicle>
    <vehicle id="41" type="passenger" depart="290.94">
        <route edges="624481020#0 624481020#1 624481020#2 624481020#4 689912267#0 214812786 715913363#2 1290085525#0 1290085525#1"/>
    </vehicle>
    <vehicle id="42" type="passenger" depart="292.56">
        <route edges="-196656222#1 -196656222#0 -53207957 150041593 196656222#0 196656222#1 196656222#2 700440130#0 700440130#1 700440128 700440129 1290085526#0 150041594#0 56163443#1 700440137 700440134 715913363#2 1290085525#0 1290085525#1 700440148 378479743#0 378479743#1 378479743#2 378479743#3 378479743#4 378479743#5 378479743#6"/>
    </vehicle>
    <vehicle id="43" type="passenger" depart="297.08">
        <route edges="-150041551#3 150041551#2 56163443#1 700440137 700440134 715913363#2 1290085525#0 1290085525#1 700440148 378479743#0 378479743#1 378479743#2 378479743#3 -23248109#1 23248109#1 -378479743#3"/>
    </vehicle>
    <vehicle id="45" type="passenger" depart="300.01">
        <route edges="E0 E2 116556686#1 -60263960 715835444#1 23508141#1 70205228#0 70205228#1 70205228#2 -70205228#2 -70205228#1 -70205228#0 -23508141#1"/>
    </vehicle>
    <vehicle id="46" type="passenger" depart="322.17">
        <route edges="506015829#1 E0 E2 378479740#1 700440134 715913363#2 1290085525#0 1290085525#1 700440148 378479743#0 378479743#1 378479743#2"/>
    </vehicle>
    <vehicle id="47" type="passenger" depart="326.25">
        <route edges="56163443#1 700440137 -700440136 -56163443#3 -150041551#3 -4295817#3"/>
    </vehicle>
    <vehicle id="48" type="passenger" depart="335.61">
        <route edges="23248109#1 -378479743#3 -378479743#2 -378479743#1 -378479743#0 700440131 506015829#1 E0 E2 378479740#1 -700440136 -56163443#3 -150041551#3 -150041551#1 -150041551#0 150041551#0 150041551#1"/>
    </vehicle>
    <vehicle id="49" type="passenger" depart="335.70">
        <route edges="150041565 700440130#0 700440130#1 700440128 700440129 1290085526#0 150041594#0 56163443#1 700440137 700440134 715913363#2 1290085525#0 1290085525#1 700440148 378479743#0 378479743#1 378479743#2 378479743#3 378479743#4 378479743#5 378479743#6 700236092#0 700236092#1 700236093"/>
    </vehicle>
    <vehicle id="50" type="passenger" depart="347.36">
        <route edges="E0 E2 378479740#1 -700440136 -56163443#3 -150041594#1 -1290085526#1 -700440129 -700440128 -700440130#1"/>
    </vehicle>
    <vehicle id="51" type="passenger" depart="372.28">
        <route edges="38115188 150041593 196656222#0 196656222#1 196656222#2 700440130#0 700440130#1 700440128 700440129 1290085526#0 150041594#0 56163443#1 700440137 700440134 715913363#2 1290085525#0 1290085525#1 700440148 378479743#0 378479743#1 378479743#2 378479743#3"/>
    </vehicle>
    <vehicle id="52" type="passenger" depart="378.74">
        <route edges="492925919 -1265069360#0 1265069359 1265069358#1 -378479743#6 -378479743#5 -378479743#4 -378479743#3 -378479743#2 -378479743#1 -378479743#0 700440131 506015829#1 E0 E2 116556686#1 -60263960 715835444#1 715835444#2 715835444#3"/>
    </vehicle>
    <vehicle id="53" type="passenger" depart="379.72">
        <route edges="-4295817#3 -4295817#1 -4295817#0 700440129 1290085526#0 150041594#0 56163443#1 700440137 700440134 116556686#1 -60263960 -4195580#2"/>
    </vehicle>
    <vehicle id="54" type="passenger" depart="383.65">
        <route edges="4144040#2 4144040#3 4144040#4 700440148 378479743#0 378479743#1 378479743#2 378479743#3 378479743#4 378479743#5 378479743#6 -1265069358#1 -1265069360#0 1265069359 1265069358#1 -378479743#6 -378479743#5"/>
    </vehicle>
    <vehicle id="55" type="passenger" depart="396.71">
        <route edges="-4144040#4 -4144040#3 4144040#3 4144040#4 700440148 700440131 506015829#1 E0 E2 378479740#1 -700440136 -56163443#3 182982119#0 881694399 -881694399 -182982119#1"/>
    </vehicle>
    <vehicle id="56" type="passenger" depart="397.55">
        <route edges="-1265069358#1 -1265069360#0 1265069359 1265069358#1 -378479743#6 -378479743#5 -378479743#4 -378479743#3 -378479743#2 -378479743#1 -378479743#0 700440131 506015829#1 E0 E2 378479740#1 -700440136 -56163443#3 -150041551#3 -150041551#1 -150041551#0 150041551#0 150041551#1"/>
    </vehicle>
    <vehicle id="57" type="passenger" depart="413.72">
        <route edges="378479743#3 -23248109#1 23248109#1 -378479743#3 -378479743#2 -378479743#1 -378479743#0 700440131 506015829#1 E0 E2 378479740#1 -700440136 -56163443#3 -150041594#1 -1290085526#1 -700440129"/>
    </vehicle>
    <vehicle id="58" type="passenger" depart="421.61">
        <route edges="-60263960 60263960 116556688 43135644#0 715913363#2 1290085525#0 1290085525#1 700440148 378479743#0 378479743#1 75392301#0 75392301#1 4195610#0"/>
    </vehicle>
    <vehicle id="59" type="passenger" depart="432.50">
        <route edges="4295817#0 4295817#1 4295817#3 150041551#2"/>
    </vehicle>
    <vehicle id="60" type="passenger" depart="435.79">
        <route edges="4195580#2 715835444#1 23508141#1 70205228#0 70205228#1"/>
    </vehicle>
    <vehicle id="61" type="passenger" depart="438.04">
        <route edges="53207959#3 150041593 196656222#0 196656222#1 196656222#2 700440130#0 700440130#1 700440128 700440129 1290085526#0 150041594#0 56163443#1 700440137 700440134 715913363#2 1290085525#0 1290085525#1 700440148 378479743#0 378479743#1 378479743#2 378479743#3 378479743#4 378479743#5"/>
    </vehicle>
    <vehicle id="62" type="passenger" depart="442.58">
        <route edges="4144040#3 4144040#4 700440148 700440131 506015829#1 E0 E2 116556686#1 -60263960 715835444#1"/>
    </vehicle>
    <vehicle id="65" type="passenger" depart="456.81">
        <route edges="624481020#1 624481020#2 624481020#4 689912267#0 214812786 378479740#1 -700440136 -56163443#3 -150041594#1"/>
    </vehicle>
    <vehicle id="66" type="passenger" depart="458.35">
        <route edges="-4144040#2 -4144040#1 4195580#0 4195580#1 4195580#2 60263960 116556688 43135644#0 378479740#1 -700440136"/>
    </vehicle>
    <vehicle id="67" type="passenger" depart="469.04">
        <route edges="492925920#0 492925920#1 395456768 395456769#0 395456769#1 24509268 700440138 700440139 -378479743#6 -378479743#5 -378479743#4 -378479743#3 -378479743#2 -378479743#1 -378479743#0 700440131 506015829#1 E0 E2 378479740#1 -700440136 -56163443#3 -150041551#3 -150041551#1 -150041551#0 715835444#4 715835444#5 23508224"/>
    </vehicle>
    <vehicle id="68" type="passenger" depart="469.86">
        <route edges="-70205228#0 -23508141#1 715835444#2 715835444#3 715835444#4 715835444#5 23508224 -23508224"/>
    </vehicle>
    <vehicle id="69" type="passenger" depart="472.82">
        <route edges="4195580#2"/>
    </vehicle>
    <vehicle id="70" type="passenger" depart="497.00">
        <route edges="715835444#2 715835444#3 150041551#0 150041551#1 150041551#2 -150041594#1 -1290085526#1 -700440129 -700440128 -700440130#1 -700440130#0 -196656222#2 -196656222#1 -196656222#0 -53207957 150041593 196656222#0"/>
    </vehicle>
    <vehicle id="71" type="passenger" depart="510.91">
        <route edges="196656222#1 196656222#2 -196656222#2 -196656222#1 -196656222#0"/>
    </vehicle>
    <vehicle id="72" type="passenger" depart="517.04">
        <route edges="-150041551#0 150041551#0 150041551#1 150041551#2 56163443#1 700440137 700440134 715913363#2 1290085525#0 1290085525#1 700440148 378479743#0 378479743#1 378479743#2 378479743#3 378479743#4 378479743#5 378479743#6 700236092#0 700236092#1 700236093 44973978 506013711#1 4019053#2 -150032770#6 -150032770#5 -150032770#2 -150032770#1 -150032770#0 150032770#0 150032770#1 150032770#2 150032770#5"/>
    </vehicle>
    <vehicle id="73" type="passenger" depart="521.16">
        <route edges="-715835444#5 -715835444#4 150041551#0 150041551#1 150041551#2 56163443#1 700440137 -700440136 -56163443#3"/>
    </vehicle>
    <vehicle id="74" type="passenger" depart="522.43">
        <route edges="-23248109#0 23248109#0 23248109#1 -378479743#3 -378479743#2 -378479743#1 -378479743#0 700440131 506015829#1 E0 E2 378479740#1 700440134 715913363#2"/>
    </vehicle>
    <vehicle id="76" type="passenger" depart="525.10">
        <route edges="715835444#4 715835444#5 23508224 -4295817#0 700440129 1290085526#0 150041594#0 56163443#1 700440137 700440134 715913363#2 1290085525#0 1290085525#1 700440148 700440131 506015829#1 E0 E2"/>
    </vehicle>
    <vehicle id="77" type="passenger" depart="541.51">
        <route edges="4195580#0 4195580#1 4195580#2 60263960 116556688 43135644#0 214812788#2 73372559 -689912267#0 -624481020#4 -624481020#3"/>
    </vehicle>
    <vehicle id="80" type="passenger" depart="566.88">
        <route edges="700440148 378479743#0 378479743#1 75392301#0 75392301#1 4195610#0 4195610#2 484022097 -4144040#2"/>
    </vehicle>
    <vehicle id="82" type="passenger" depart="574.75">
        <route edges="196656222#1 196656222#2 -196656222#2"/>
    </vehicle>
    <vehicle id="83" type="passenger" depart="585.84">
        <route edges="116556686#1 -60263960 715835444#1 -715835444#1"/>
    </vehicle>
    <vehicle id="84" type="passenger" depart="603.62">
        <route edges="4144040#4 700440148 378479743#0 378479743#1 378479743#2 378479743#3 378479743#4 378479743#5 378479743#6 700236092#0 700236092#1 700236093"/>
    </vehicle>
    <vehicle id="85" type="passenger" depart="604.31">
        <route edges="-881694399 -182982119#1 56163443#1 700440137 700440134 116556686#1 -60263960 -4195580#2 -4195580#1 -4195580#0 4195580#0 4195580#1"/>
    </vehicle>
    <vehicle id="86" type="passenger" depart="606.71">
        <route edges="-70205228#0 -23508141#1 715835444#2 715835444#3"/>
    </vehicle>
    <vehicle id="87" type="passenger" depart="624.91">
        <route edges="60263960 116556688 43135644#0 378479740#1 700440134 116556686#1 -60263960 715835444#1 23508141#1"/>
    </vehicle>
    <vehicle id="88" type="passenger" depart="633.42">
        <route edges="150041579#0 150041579#2 150041578 150041580 149518769#1 38115188 150041593 196656222#0 196656222#1 196656222#2 700440130#0 700440130#1 700440128 700440129 1290085526#0 150041594#0 56163443#1 700440137 700440134 116556686#1 -60263960 715835444#1 23508141#1 70205228#0 70205228#1 70205228#2 -70205228#2 -70205228#1 -70205228#0"/>
    </vehicle>
    <vehicle id="89" type="passenger" depart="634.67">
        <route edges="-715835444#5 -715835444#4 150041551#0 150041551#1 150041551#2 56163443#1 700440137 700440134 214812788#2 73372559"/>
    </vehicle>
    <vehicle id="93" type="passenger" depart="661.29">
        <route edges="-4195580#1 -4195580#0 4195580#0 4195580#1 4195580#2 60263960 116556688 43135644#0 378479740#1 -700440136 -56163443#3 182982119#0 881694399 -881694399"/>
    </vehicle>
    <vehicle id="96" type="passenger" depart="695.36">
        <route edges="23508224 -23508224 -715835444#5 -715835444#4 -715835444#3 -715835444#2 23508141#1 70205228#0 70205228#1 70205228#2"/>
    </vehicle>
    <vehicle id="97" type="passenger" depart="725.30">
        <route edges="150041551#2 56163443#1 700440137 700440134 116556686#1 -60263960 -4195580#2 -4195580#1 -4195580#0 4195580#0 4195580#1"/>
    </vehicle>
    <vehicle id="98" type="passenger" depart="731.10">
        <route edges="-378479743#0 700440131 506015829#1 E0 E2 378479740#1 700440134 715913363#2 1290085525#0 1290085525#1 700440148 378479743#0 378479743#1 75392301#0"/>
    </vehicle>
    <vehicle id="99" type="passenger" depart="751.26">
        <route edges="378479743#6 -1265069358#1 -1265069360#0 1265069359 1265069358#1 -378479743#6 -378479743#5 -378479743#4 -378479743#3 -378479743#2 -378479743#1 -378479743#0 700440131 506015829#1 E0 E2 116556686#1 -60263960 -51873805"/>
    </vehicle>
    <vehicle id="100" type="passenger" depart="778.20">
        <route edges="-4144040#1 4195580#0 4195580#1 4195580#2 715835444#1 23508141#1"/>
    </vehicle>
    <vehicle id="101" type="passenger" depart="779.87">
        <route edges="24509268 700440138 700440139 -378479743#6 -378479743#5 -378479743#4 -378479743#3 -378479743#2 -378479743#1 -378479743#0 700440131 506015829#1 E0 E2 378479740#1 -700440136 -56163443#3 -150041594#1 -1290085526#1 -700440129 -700440128 -700440130#1 -700440130#0 -196656222#2"/>
    </vehicle>
    <vehicle id="102" type="passenger" depart="784.05">
        <route edges="E0 E2 378479740#1 700440134 715913363#2 1290085525#0 1290085525#1 700440148"/>
    </vehicle>
    <vehicle id="103" type="passenger" depart="787.18">
        <route edges="150041580 149518769#1 38115188 150041593 196656222#0 196656222#1 196656222#2 700440130#0 700440130#1 700440128 700440129 1290085526#0 150041594#0 56163443#1 700440137 700440134 116556686#1 -60263960 715835444#1 23508141#1 70205228#0 70205228#1 70205228#2 -70205228#2 -70205228#1 -70205228#0 -23508141#1"/>
    </vehicle>
    <vehicle id="104" type="passenger" depart="807.62">
        <route edges="624481020#2 624481020#4 689912267#0 214812786 378479740#1 -700440136 -56163443#3 -150041594#1 -1290085526#1 -700440129 -700440128 -700440130#1 -700440130#0 -196656222#2 -196656222#1 -196656222#0 -53207957 150041593 196656222#0"/>
    </vehicle>
    <vehicle id="105" type="passenger" depart="812.91">
        <route edges="4295817#3 -4295817#3 -4295817#1 -4295817#0 -700440128 -700440130#1 -700440130#0 -196656222#2 -196656222#1 -196656222#0 -53207957 150041593 196656222#0 196656222#1 196656222#2"/>
    </vehicle>
    <vehicle id="106" type="passenger" depart="814.56">
        <route edges="-700440130#1 -700440130#0 700440130#0 700440130#1 700440128 700440129 1290085526#0 150041594#0 56163443#1 700440137 700440134 214812788#2 73372559 -689912267#0 -624481020#4 -624481020#3 -624481020#1 -624481020#0 624481020#0 624481020#1 624481020#2 624481020#4"/>
    </vehicle>
    <vehicle id="107" type="passenger" depart="816.96">
        <route edges="75392301#1 4195610#0 4195610#2 484022097 4144040#3 4144040#4 700440148 700440131 506015829#1 E0 E2 378479740#1 -700440136 -56163443#3 -150041594#1 -1290085526#1 -700440129 -700440128 -700440130#1 -700440130#0 -196656222#2 -196656222#1 -196656222#0 -53207957"/>
    </vehicle>
    <vehicle id="108" type="passenger" depart="833.14">
        <route edges="24509268 700440138 700440139 -378479743#6 -378479743#5 -378479743#4 -378479743#3 -378479743#2 -378479743#1 -378479743#0 700440131 506015829#1 E0 E2 116556686#1 -60263960 60263960 116556688"/>
    </vehicle>
    <vehicle id="109" type="passenger" depart="836.74">
        <route edges="70205228#0 70205228#1 70205228#2 -70205228#2 -70205228#1 -70205228#0 -23508141#1 715835444#2 715835444#3 150041551#0 150041551#1 150041551#2 -150041594#1 -1290085526#1 -700440129 -700440128 -700440130#1 -700440130#0 -196656222#2 -196656222#1 -196656222#0 -53207957 150041593 196656222#0 196656222#1"/>
    </vehicle>
    <vehicle id="110" type="passenger" depart="847.12">
        <route edges="700440130#1 700440128"/>
    </vehicle>
    <vehicle id="113" type="passenger" depart="866.70">
        <route edges="214812788#2 73372559 -689912267#0 -624481020#4 -624481020#3 -624481020#1 -624481020#0 624481020#0 624481020#1 624481020#2 624481020#4 689912267#0 214812786 116556686#1 -60263960 60263960"/>
    </vehicle>
    <vehicle id="114" type="passenger" depart="867.12">
        <route edges="-700440136 -56163443#3 -150041594#1 -1290085526#1 -700440129 -700440128 -700440130#1 -700440130#0"/>
    </vehicle>
    <vehicle id="115" type="passenger" depart="870.75">
        <route edges="378479743#2 378479743#3 -23248109#1 23248109#1 -378479743#3 -378479743#2 -378479743#1 -378479743#0 700440131 506015829#1 E0 E2"/>
    </vehicle>
    <vehicle id="116" type="passenger" depart="873.80">
        <route edges="196656222#1 196656222#2 700440130#0 700440130#1 700440128 700440129 1290085526#0 150041594#0 56163443#1 700440137 700440134 715913363#2 1290085525#0 1290085525#1 700440148 378479743#0 378479743#1 378479743#2 378479743#3 -23248109#1 23248109#1 -378479743#3"/>
    </vehicle>
    <vehicle id="117" type="passenger" depart="875.71">
        <route edges="23508141#1 70205228#0 70205228#1 70205228#2 -70205228#2 -70205228#1 -70205228#0 -23508141#1 715835444#2 715835444#3 -715835444#3"/>
    </vehicle>
    <vehicle id="119" type="passenger" depart="881.24">
        <route edges="150041579#0 150041579#2 150041578 150041580 149518769#1 38115188 150041593 196656222#0 196656222#1 196656222#2 700440130#0 700440130#1 700440128 700440129 1290085526#0 150041594#0 56163443#1 700440137 700440134 116556686#1 -60263960 715835444#1 23508141#1 70205228#0 70205228#1 70205228#2 -70205228#2 -70205228#1"/>
    </vehicle>
    <vehicle id="120" type="passenger" depart="896.06">
        <route edges="-4195580#1 -4195580#0 4195580#0 4195580#1"/>
    </vehicle>
    <vehicle id="121" type="passenger" depart="898.39">
        <route edges="378479740#1 700440134 715913363#2 1290085525#0 1290085525#1 -4144040#4 -4144040#3 -484022097"/>
    </vehicle>
    <vehicle id="122" type="passenger" depart="899.10">
        <route edges="53207959#0 53207959#1 53207959#3 150041593 196656222#0 196656222#1 196656222#2 700440130#0 700440130#1 700440128 700440129 1290085526#0 150041594#0 56163443#1 700440137 700440134 715913363#2 1290085525#0 1290085525#1 700440148 378479743#0 378479743#1 378479743#2 378479743#3 378479743#4 378479743#5 378479743#6 700236092#0 700236092#1 700236093 44973978 506013711#1 4019053#2 -150032770#6"/>
    </vehicle>
    <vehicle id="123" type="passenger" depart="911.12">
        <route edges="492925920#0 492925920#1 395456768 395456769#0 395456769#1 24509268 700440138 700440139 -378479743#6 -378479743#5 -378479743#4 -378479743#3 -378479743#2 75392301#0 75392301#1 4195610#0"/>
    </vehicle>
    <vehicle id="124" type="passenger" depart="913.87">
        <route edges="60263960 116556688 43135644#0 715913363#2 1290085525#0 1290085525#1 700440148 378479743#0 378479743#1 378479743#2 378479743#3 378479743#4 378479743#5 378479743#6 -1265069358#1 -1265069360#0 1265069359 1265069358#1"/>
    </vehicle>
    <vehicle id="125" type="passenger" depart="914.32">
        <route edges="4144040#3 4144040#4 700440148 700440131 506015829#1 E0 E2 116556686#1 -60263960 60263960"/>
    </vehicle>
    <vehicle id="126" type="passenger" depart="947.96">
        <route edges="75392301#1 4195610#0 4195610#2 484022097 4144040#3 4144040#4 700440148 700440131 506015829#1 E0 E2 378479740#1 -700440136 -56163443#3 182982119#0"/>
    </vehicle>
    <vehicle id="128" type="passenger" depart="953.81">
        <route edges="378479743#3 -23248109#1 23248109#1 -378479743#3 -378479743#2 -378479743#1 -378479743#0 700440131 506015829#1 E0 E2 378479740#1 -700440136 -56163443#3 -150041594#1 -1290085526#1 -700440129 700440129"/>
    </vehicle>
    <vehicle id="129" type="passenger" depart="960.05">