<?xml version="1.0" encoding="UTF-8"?>

<!-- generated on 2024-10-21 22:13:20.541384 by randomTrips.py UNKNOWN
<configuration>
    <net-file value="/opt/homebrew/opt/sumo/share/sumo/tools/2024-10-08-17-29-51/241018_A034.net.xml"/>
    <route-file value="241021_random_route.rou.xml"/>
    <vehicle-class value="passenger"/>
    <verbose value="True"/>
    <insertion-density value="40.0"/>
    <random-depart value="True"/>
</configuration>
-->

<routes xmlns:xsi="http://www.w3.org/2001/XMLSchema-instance" xsi:noNamespaceSchemaLocation="http://sumo.dlr.de/xsd/routes_file.xsd">
    <vType id="passenger" vClass="passenger"/>
    <trip id="0" depart="1.63" from="484022097" to="715913363#2" type="passenger"/>
    <trip id="1" depart="2.74" from="-700440130#0" to="59591195#1" type="passenger"/>
    <trip id="2" depart="14.34" from="23508141#1" to="150041593" type="passenger"/>
    <trip id="3" depart="30.00" from="150041551#2" to="4295817#3" type="passenger"/>
    <trip id="4" depart="60.13" from="-700440130#0" to="700236092#1" type="passenger"/>
    <trip id="5" depart="79.25" from="624481020#2" to="-196656222#1" type="passenger"/>
    <trip id="6" depart="79.28" from="700440130#1" to="-53207957" type="passenger"/>
    <trip id="7" depart="83.68" from="150041580" to="378479743#3" type="passenger"/>
    <trip id="8" depart="86.55" from="1290085525#1" to="-150032770#2" type="passenger"/>
    <trip id="9" depart="101.67" from="700236092#1" to="-4144040#2" type="passenger"/>
    <trip id="10" depart="102.48" from="-484022097" to="56163443#1" type="passenger"/>
    <trip id="11" depart="111.87" from="103958941#2" to="700440130#1" type="passenger"/>
    <trip id="12" depart="127.43" from="4295817#0" to="-624481020#4" type="passenger"/>
    <trip id="13" depart="130.72" from="-1290085526#1" to="715835444#3" type="passenger"/>
    <trip id="14" depart="156.67" from="-23015831" to="4295817#0" type="passenger"/>
    <trip id="15" depart="162.19" from="196656222#0" to="492925919" type="passenger"/>
    <trip id="16" depart="163.78" from="4195610#0" to="395456768" type="passenger"/>
    <trip id="17" depart="164.16" from="196656222#1" to="53207959#3" type="passenger"/>
    <trip id="18" depart="181.53" from="-23248109#0" to="-4295817#1" type="passenger"/>
    <trip id="19" depart="189.57" from="4195610#0" to="-700440130#1" type="passenger"/>
    <trip id="20" depart="192.72" from="378479743#1" to="150041579#2" type="passenger"/>
    <trip id="21" depart="205.09" from="23508141#0" to="150032770#2" type="passenger"/>
    <trip id="22" depart="205.30" from="492925920#0" to="-715835444#1" type="passenger"/>
    <trip id="23" depart="205.38" from="4295817#0" to="-624481020#3" type="passenger"/>
    <trip id="24" depart="207.33" from="-689912267#0" to="-23508141#1" type="passenger"/>
    <trip id="25" depart="229.65" from="-4195580#2" to="-23508141#1" type="passenger"/>
    <trip id="26" depart="237.59" from="23508141#1" to="492925920#1" type="passenger"/>
    <trip id="27" depart="239.66" from="-4195580#1" to="-4295817#0" type="passenger"/>
    <trip id="28" depart="240.50" from="196656222#0" to="4295817#1" type="passenger"/>
    <trip id="29" depart="241.47" from="75392301#0" to="214812788#2" type="passenger"/>
    <trip id="30" depart="248.04" from="-700440136" to="-23015831" type="passenger"/>
    <trip id="31" depart="249.32" from="-4195580#2" to="-4295817#3" type="passenger"/>
    <trip id="32" depart="260.45" from="-4195580#0" to="-1290085526#1" type="passenger"/>
    <trip id="33" depart="262.70" from="23508141#1" to="-624481020#4" type="passenger"/>
    <trip id="34" depart="263.35" from="75392301#0" to="23508142#0" type="passenger"/>
    <trip id="35" depart="271.87" from="4195610#2" to="-23508224" type="passenger"/>
    <trip id="36" depart="276.83" from="700440129" to="150041594#0" type="passenger"/>
    <trip id="37" depart="278.83" from="700440130#0" to="24509268" type="passenger"/>
    <trip id="38" depart="280.76" from="150041593" to="150032770#6" type="passenger"/>
    <trip id="39" depart="284.69" from="-4195580#1" to="-150041551#1" type="passenger"/>
    <trip id="40" depart="284.82" from="715835444#2" to="150041580" type="passenger"/>
    <trip id="41" depart="290.94" from="624481020#0" to="1290085525#1" type="passenger"/>
    <trip id="42" depart="292.56" from="-196656222#1" to="378479743#6" type="passenger"/>
    <trip id="43" depart="297.08" from="-150041551#3" to="-378479743#3" type="passenger"/>
    <trip id="44" depart="298.26" from="35574708#1" to="-700440130#1" type="passenger"/>
    <trip id="45" depart="300.01" from="E0" to="-23508141#1" type="passenger"/>
    <trip id="46" depart="322.17" from="506015829#1" to="378479743#2" type="passenger"/>
    <trip id="47" depart="326.25" from="56163443#1" to="-4295817#3" type="passenger"/>
    <trip id="48" depart="335.61" from="23248109#1" to="150041551#1" type="passenger"/>
    <trip id="49" depart="335.70" from="150041565" to="700236093" type="passenger"/>
    <trip id="50" depart="347.36" from="E0" to="-700440130#1" type="passenger"/>
    <trip id="51" depart="372.28" from="38115188" to="378479743#3" type="passenger"/>
    <trip id="52" depart="378.74" from="492925919" to="715835444#3" type="passenger"/>
    <trip id="53" depart="379.72" from="-4295817#3" to="-4195580#2" type="passenger"/>
    <trip id="54" depart="383.65" from="4144040#2" to="-378479743#5" type="passenger"/>
    <trip id="55" depart="396.71" from="-4144040#4" to="-182982119#1" type="passenger"/>
    <trip id="56" depart="397.55" from="-1265069358#1" to="150041551#1" type="passenger"/>
    <trip id="57" depart="413.72" from="378479743#3" to="-700440129" type="passenger"/>
    <trip id="58" depart="421.61" from="-60263960" to="4195610#0" type="passenger"/>
    <trip id="59" depart="432.50" from="4295817#0" to="150041551#2" type="passenger"/>
    <trip id="60" depart="435.79" from="4195580#2" to="70205228#1" type="passenger"/>
    <trip id="61" depart="438.04" from="53207959#3" to="378479743#5" type="passenger"/>
    <trip id="62" depart="442.58" from="4144040#3" to="715835444#1" type="passenger"/>
    <trip id="63" depart="447.55" from="150041551#0" to="23508141#0" type="passenger"/>
    <trip id="64" depart="449.56" from="4144040#0" to="700440139" type="passenger"/>
    <trip id="65" depart="456.81" from="624481020#1" to="-150041594#1" type="passenger"/>
    <trip id="66" depart="458.35" from="-4144040#2" to="-700440136" type="passenger"/>
    <trip id="67" depart="469.04" from="492925920#0" to="23508224" type="passenger"/>
    <trip id="68" depart="469.86" from="-70205228#0" to="-23508224" type="passenger"/>
    <trip id="69" depart="472.82" from="4195580#2" to="4195580#2" type="passenger"/>
    <trip id="70" depart="497.00" from="715835444#2" to="196656222#0" type="passenger"/>
    <trip id="71" depart="510.91" from="196656222#1" to="-196656222#0" type="passenger"/>
    <trip id="72" depart="517.04" from="-150041551#0" to="150032770#5" type="passenger"/>
    <trip id="73" depart="521.16" from="-715835444#5" to="-56163443#3" type="passenger"/>
    <trip id="74" depart="522.43" from="-23248109#0" to="715913363#2" type="passenger"/>
    <trip id="75" depart="522.84" from="624481020#4" to="24509268" type="passenger"/>
    <trip id="76" depart="525.10" from="715835444#4" to="E2" type="passenger"/>
    <trip id="77" depart="541.51" from="4195580#0" to="-624481020#3" type="passenger"/>
    <trip id="78" depart="546.10" from="-150041551#0" to="492925919" type="passenger"/>
    <trip id="79" depart="556.00" from="150041593" to="395456769#0" type="passenger"/>
    <trip id="80" depart="566.88" from="700440148" to="-4144040#2" type="passenger"/>
    <trip id="81" depart="571.06" from="378479743#2" to="378479753" type="passenger"/>
    <trip id="82" depart="574.75" from="196656222#1" to="-196656222#2" type="passenger"/>
    <trip id="83" depart="585.84" from="116556686#1" to="-715835444#1" type="passenger"/>
    <trip id="84" depart="603.62" from="4144040#4" to="700236093" type="passenger"/>
    <trip id="85" depart="604.31" from="-881694399" to="4195580#1" type="passenger"/>
    <trip id="86" depart="606.71" from="-70205228#0" to="715835444#3" type="passenger"/>
    <trip id="87" depart="624.91" from="60263960" to="23508141#1" type="passenger"/>
    <trip id="88" depart="633.42" from="150041579#0" to="-70205228#0" type="passenger"/>
    <trip id="89" depart="634.67" from="-715835444#5" to="73372559" type="passenger"/>
    <trip id="90" depart="644.20" from="150032770#1" to="214812786" type="passenger"/>
    <trip id="91" depart="651.16" from="881694399" to="395456769#1" type="passenger"/>
    <trip id="92" depart="653.34" from="23508142#0" to="149518769#1" type="passenger"/>
    <trip id="93" depart="661.29" from="-4195580#1" to="-881694399" type="passenger"/>
    <trip id="94" depart="661.31" from="506013711#1" to="378479743#5" type="passenger"/>
    <trip id="95" depart="676.02" from="506013711#1" to="-4195580#1" type="passenger"/>
    <trip id="96" depart="695.36" from="23508224" to="70205228#2" type="passenger"/>
    <trip id="97" depart="725.30" from="150041551#2" to="4195580#1" type="passenger"/>
    <trip id="98" depart="731.10" from="-378479743#0" to="75392301#0" type="passenger"/>
    <trip id="99" depart="751.26" from="378479743#6" to="-51873805" type="passenger"/>
    <trip id="100" depart="778.20" from="-4144040#1" to="23508141#1" type="passenger"/>
    <trip id="101" depart="779.87" from="24509268" to="-196656222#2" type="passenger"/>
    <trip id="102" depart="784.05" from="E0" to="700440148" type="passenger"/>
    <trip id="103" depart="787.18" from="150041580" to="-23508141#1" type="passenger"/>
    <trip id="104" depart="807.62" from="624481020#2" to="196656222#0" type="passenger"/>
    <trip id="105" depart="812.91" from="4295817#3" to="196656222#2" type="passenger"/>
    <trip id="106" depart="814.56" from="-700440130#1" to="624481020#4" type="passenger"/>
    <trip id="107" depart="816.96" from="75392301#1" to="-53207957" type="passenger"/>
    <trip id="108" depart="833.14" from="24509268" to="116556688" type="passenger"/>
    <trip id="109" depart="836.74" from="70205228#0" to="196656222#1" type="passenger"/>
    <trip id="110" depart="847.12" from="700440130#1" to="700440128" type="passenger"/>
    <trip id="111" depart="858.11" from="-700440130#1" to="53207959#3" type="passenger"/>
    <trip id="112" depart="860.05" from="150032770#5" to="715835444#1" type="passenger"/>
    <trip id="113" depart="866.70" from="214812788#2" to="60263960" type="passenger"/>
    <trip id="114" depart="867.12" from="-700440136" to="-700440130#0" type="passenger"/>
    <trip id="115" depart="870.75" from="378479743#2" to="E2" type="passenger"/>
    <trip id="116" depart="873.80" from="196656222#1" to="-378479743#3" type="passenger"/>
    <trip id="117" depart="875.71" from="23508141#1" to="-715835444#3" type="passenger"/>
    <trip id="118" depart="877.12" from="24509268" to="23508141#0" type="passenger"/>
    <trip id="119" depart="881.24" from="150041579#0" to="-70205228#1" type="passenger"/>
    <trip id="120" depart="896.06" from="-4195580#1" to="4195580#1" type="passenger"/>
    <trip id="121" depart="898.39" from="378479740#1" to="-484022097" type="passenger"/>
    <trip id="122" depart="899.10" from="53207959#0" to="-150032770#6" type="passenger"/>
    <trip id="123" depart="911.12" from="492925920#0" to="4195610#0" type="passenger"/>
    <trip id="124" depart="913.87" from="60263960" to="1265069358#1" type="passenger"/>
    <trip id="125" depart="914.32" from="4144040#3" to="60263960" type="passenger"/>
    <trip id="126" depart="947.96" from="75392301#1" to="182982119#0" type="passenger"/>
    <trip id="127" depart="952.24" from="-150032770#6" to="196656222#0" type="passenger"/>
    <trip id="128" depart="953.81" from="378479743#3" to="700440129" type="passenger"/>
    <trip id="129" depart="960.05" from="700440130#0" to="150032770#6" type="passenger"/>
    <trip id="130" depart="962.97" from="23248109#1" to="150041551#2" type="passenger"/>
    <trip id="131" depart="968.80" from="449551311" to="149518769#1" type="passenger"/>
    <trip id="132" depart="974.26" from="4144040#1" to="-378479743#4" type="passenger"/>
    <trip id="133" depart="977.40" from="150041593" to="73372559" type="passenger"/>
    <trip id="134" depart="979.29" from="103958941#0" to="4195580#0" type="passenger"/>
    <trip id="135" depart="994.64" from="4144040#0" to="700236092#1" type="passenger"/>
    <trip id="136" depart="1000.72" from="700236092#1" to="700236093" type="passenger"/>
    <trip id="137" depart="1002.57" from="1290085525#1" to="-70205228#0" type="passenger"/>
    <trip id="138" depart="1015.30" from="43135644#0" to="492925919" type="passenger"/>
    <trip id="139" depart="1020.85" from="700440130#0" to="-150032770#5" type="passenger"/>
    <trip id="140" depart="1022.50" from="-196656222#0" to="378479743#6" type="passenger"/>
    <trip id="141" depart="1029.92" from="70205228#0" to="E2" type="passenger"/>
    <trip id="142" depart="1033.61" from="492925920#0" to="150032770#5" type="passenger"/>
    <trip id="143" depart="1049.84" from="-23248109#1" to="378479753" type="passenger"/>
    <trip id="144" depart="1069.11" from="700440130#0" to="150041551#0" type="passenger"/>
    <trip id="145" depart="1081.43" from="4195610#0" to="700440138" type="passenger"/>
    <trip id="146" depart="1083.88" from="-150041551#1" to="56163443#1" type="passenger"/>
    <trip id="147" depart="1086.92" from="-70205228#1" to="116556686#1" type="passenger"/>
    <trip id="148" depart="1092.15" from="-378479743#5" to="23248109#0" type="passenger"/>
    <trip id="149" depart="1092.40" from="35574708#1" to="53207959#3" type="passenger"/>
    <trip id="150" depart="1093.13" from="-4144040#3" to="-196656222#0" type="passenger"/>
    <trip id="151" depart="1105.02" from="700440129" to="378479743#4" type="passenger"/>
    <trip id="152" depart="1115.87" from="-624481020#3" to="700440148" type="passenger"/>
    <trip id="153" depart="1117.36" from="-378479743#4" to="150041578" type="passenger"/>
    <trip id="154" depart="1126.76" from="-689912267#0" to="-60263960" type="passenger"/>
    <trip id="155" depart="1133.52" from="-1290085526#1" to="59591195#1" type="passenger"/>
    <trip id="156" depart="1135.91" from="700440138" to="4144040#3" type="passenger"/>
    <trip id="157" depart="1138.42" from="-4144040#1" to="150041551#0" type="passenger"/>
    <trip id="158" depart="1138.77" from="116556686#1" to="378479740#1" type="passenger"/>
    <trip id="159" depart="1139.24" from="4019053#2" to="150032770#1" type="passenger"/>
    <trip id="160" depart="1139.49" from="-689912267#0" to="700236092#0" type="passenger"/>
    <trip id="161" depart="1141.14" from="-4295817#0" to="116556688" type="passenger"/>
    <trip id="162" depart="1143.75" from="182982119#0" to="-51873805" type="passenger"/>
    <trip id="163" depart="1167.28" from="378479740#1" to="24509268" type="passenger"/>
    <trip id="164" depart="1175.13" from="E0" to="-700440129" type="passenger"/>
    <trip id="165" depart="1211.67" from="75392301#1" to="395456769#1" type="passenger"/>
    <trip id="166" depart="1215.90" from="-700440130#1" to="23508224" type="passenger"/>
    <trip id="167" depart="1228.56" from="4195580#2" to="44973978" type="passenger"/>
    <trip id="168" depart="1230.73" from="-150041551#1" to="378479743#2" type="passenger"/>
    <trip id="169" depart="1232.65" from="196656222#2" to="700440138" type="passenger"/>
    <trip id="170" depart="1235.34" from="-70205228#0" to="56163443#1" type="passenger"/>
    <trip id="171" depart="1239.42" from="378479743#6" to="-715835444#5" type="passenger"/>
    <trip id="172" depart="1259.47" from="395456769#1" to="378479743#5" type="passenger"/>
    <trip id="173" depart="1262.99" from="4195580#0" to="4295817#1" type="passenger"/>
    <trip id="174" depart="1266.50" from="4144040#2" to="689912267#0" type="passenger"/>
    <trip id="175" depart="1271.30" from="395456769#0" to="700440138" type="passenger"/>
    <trip id="176" depart="1274.30" from="4144040#0" to="-700440136" type="passenger"/>
    <trip id="177" depart="1277.05" from="150041565" to="254075881#1" type="passenger"/>
    <trip id="178" depart="1284.57" from="44973978" to="-196656222#2" type="passenger"/>
    <trip id="179" depart="1295.30" from="-70205228#2" to="44973978" type="passenger"/>
    <trip id="180" depart="1295.86" from="-4144040#4" to="-378479743#0" type="passenger"/>
    <trip id="181" depart="1327.58" from="23508142#0" to="73372559" type="passenger"/>
    <trip id="182" depart="1328.75" from="23508141#0" to="700440148" type="passenger"/>
    <trip id="183" depart="1338.32" from="624481020#2" to="-60263960" type="passenger"/>
    <trip id="184" depart="1356.04" from="624481020#1" to="150041593" type="passenger"/>
    <trip id="185" depart="1372.13" from="59591195#2" to="44973978" type="passenger"/>
    <trip id="186" depart="1375.73" from="103958941#0" to="-23508141#0" type="passenger"/>
    <trip id="187" depart="1378.83" from="715913363#2" to="-378479743#2" type="passenger"/>
    <trip id="188" depart="1397.50" from="715913363#2" to="700236093" type="passenger"/>
    <trip id="189" depart="1415.61" from="449551311" to="75392301#1" type="passenger"/>
    <trip id="190" depart="1422.28" from="73372559" to="59591195#1" type="passenger"/>
    <trip id="191" depart="1429.32" from="1265069358#1" to="53207959#3" type="passenger"/>
    <trip id="192" depart="1432.75" from="-150032770#0" to="23248109#1" type="passenger"/>
    <trip id="193" depart="1433.93" from="150041579#0" to="4144040#2" type="passenger"/>
    <trip id="194" depart="1440.72" from="4195580#0" to="35574708#1" type="passenger"/>
    <trip id="195" depart="1481.17" from="624481020#1" to="715835444#2" type="passenger"/>
    <trip id="196" depart="1483.67" from="-23508141#1" to="-484022097" type="passenger"/>
    <trip id="197" depart="1486.12" from="-150032770#2" to="700440131" type="passenger"/>
    <trip id="198" depart="1494.01" from="35574708#1" to="700440148" type="passenger"/>
    <trip id="199" depart="1510.92" from="-53207957" to="-150041565" type="passenger"/>
    <trip id="200" depart="1516.92" from="624481020#1" to="700440139" type="passenger"/>
    <trip id="201" depart="1517.51" from="-715835444#1" to="149518769#1" type="passenger"/>
    <trip id="202" depart="1531.49" from="-378479743#4" to="715835444#3" type="passenger"/>
    <trip id="203" depart="1550.96" from="-715835444#1" to="182982119#0" type="passenger"/>
    <trip id="204" depart="1552.49" from="-23248109#1" to="700440131" type="passenger"/>
    <trip id="205" depart="1552.50" from="-378479743#3" to="150041551#2" type="passenger"/>
    <trip id="206" depart="1552.51" from="4144040#4" to="44973978" type="passenger"/>
    <trip id="207" depart="1563.32" from="715835444#3" to="150032770#1" type="passenger"/>
    <trip id="208" depart="1572.86" from="492925919" to="-378479743#4" type="passenger"/>
    <trip id="209" depart="1577.61" from="150032770#5" to="-23015831" type="passenger"/>
    <trip id="210" depart="1592.21" from="196656222#1" to="149518769#1" type="passenger"/>
    <trip id="211" depart="1599.21" from="715835444#4" to="-150032770#2" type="passenger"/>
    <trip id="212" depart="1613.34" from="1265069359" to="150041551#0" type="passenger"/>
    <trip id="213" depart="1621.80" from="715835444#4" to="700236093" type="passenger"/>
    <trip id="214" depart="1624.18" from="-23248109#1" to="4144040#4" type="passenger"/>
    <trip id="215" depart="1632.25" from="23508224" to="75392301#1" type="passenger"/>
    <trip id="216" depart="1634.23" from="1185215707" to="1290085525#1" type="passenger"/>
    <trip id="217" depart="1635.94" from="-4195580#2" to="-23508141#1" type="passenger"/>
    <trip id="218" depart="1636.01" from="700236092#0" to="150041551#2" type="passenger"/>
    <trip id="219" depart="1637.19" from="4144040#3" to="38115188" type="passenger"/>
    <trip id="220" depart="1643.07" from="378479743#4" to="-150032770#0" type="passenger"/>
    <trip id="221" depart="1648.59" from="53207959#3" to="-53207957" type="passenger"/>
    <trip id="222" depart="1653.42" from="-378479743#1" to="23508224" type="passenger"/>
    <trip id="223" depart="1664.35" from="-196656222#0" to="492925920#1" type="passenger"/>
    <trip id="224" depart="1669.30" from="-4295817#3" to="-4295817#0" type="passenger"/>
    <trip id="225" depart="1672.76" from="700440129" to="-70205228#2" type="passenger"/>
    <trip id="226" depart="1697.20" from="-378479743#5" to="700440138" type="passenger"/>
    <trip id="227" depart="1703.48" from="-1265069358#1" to="700236093" type="passenger"/>
    <trip id="228" depart="1716.38" from="-378479743#5" to="-378479743#0" type="passenger"/>
    <trip id="229" depart="1718.95" from="-689912267#0" to="-4144040#1" type="passenger"/>
    <trip id="230" depart="1720.98" from="4144040#2" to="-150032770#1" type="passenger"/>
    <trip id="231" depart="1722.01" from="-150032770#0" to="53207959#3" type="passenger"/>
    <trip id="232" depart="1729.69" from="-624481020#1" to="-70205228#1" type="passenger"/>
    <trip id="233" depart="1731.37" from="-4144040#4" to="-150041551#1" type="passenger"/>
    <trip id="234" depart="1732.22" from="492925919" to="23015831" type="passenger"/>
    <trip id="235" depart="1734.37" from="492925920#0" to="150041580" type="passenger"/>
    <trip id="236" depart="1734.51" from="53207959#1" to="196656222#2" type="passenger"/>
    <trip id="237" depart="1747.44" from="-23508141#1" to="196656222#1" type="passenger"/>
    <trip id="238" depart="1754.01" from="715835444#3" to="-150032770#6" type="passenger"/>
    <trip id="239" depart="1754.41" from="53207959#1" to="700440129" type="passenger"/>
    <trip id="240" depart="1760.18" from="23248109#0" to="150041551#2" type="passenger"/>
    <trip id="241" depart="1765.17" from="715913363#2" to="-150041551#3" type="passenger"/>
    <trip id="242" depart="1766.25" from="182982119#0" to="1290085525#1" type="passenger"/>
    <trip id="243" depart="1780.47" from="4195580#2" to="150041594#0" type="passenger"/>
    <trip id="244" depart="1783.25" from="700440139" to="-182982119#1" type="passenger"/>
    <trip id="245" depart="1786.12" from="-196656222#2" to="378479743#2" type="passenger"/>
    <trip id="246" depart="1787.33" from="-182982119#1" to="-624481020#4" type="passenger"/>
    <trip id="247" depart="1794.55" from="395456769#0" to="23508141#1" type="passenger"/>
    <trip id="248" depart="1794.86" from="-715835444#5" to="E2" type="passenger"/>
    <trip id="249" depart="1801.02" from="23508141#0" to="150041551#2" type="passenger"/>
    <trip id="250" depart="1809.62" from="378479743#5" to="-23015831" type="passenger"/>
    <trip id="251" depart="1811.21" from="4295817#0" to="700236092#1" type="passenger"/>
    <trip id="252" depart="1815.13" from="4144040#1" to="506013711#1" type="passenger"/>
    <trip id="253" depart="1839.29" from="43135644#0" to="-4295817#0" type="passenger"/>
    <trip id="254" depart="1843.55" from="150041579#0" to="-4295817#3" type="passenger"/>
    <trip id="255" depart="1849.17" from="103958941#2" to="150041551#2" type="passenger"/>
    <trip id="256" depart="1858.42" from="150032770#5" to="-23015831" type="passenger"/>
    <trip id="257" depart="1863.48" from="150041551#0" to="4144040#1" type="passenger"/>
    <trip id="258" depart="1877.68" from="1290085525#0" to="-378479743#4" type="passenger"/>
    <trip id="259" depart="1891.53" from="70205228#1" to="-150041594#1" type="passenger"/>
    <trip id="260" depart="1893.35" from="624481020#2" to="-196656222#2" type="passenger"/>
    <trip id="261" depart="1894.48" from="-23248109#1" to="449551311" type="passenger"/>
    <trip id="262" depart="1903.06" from="60263960" to="23508142#0" type="passenger"/>
    <trip id="263" depart="1904.45" from="378479743#2" to="23508142#1" type="passenger"/>
    <trip id="264" depart="1904.83" from="-881694399" to="-23508141#1" type="passenger"/>
    <trip id="265" depart="1912.76" from="116556688" to="4144040#1" type="passenger"/>
    <trip id="266" depart="1917.49" from="492925920#1" to="700440129" type="passenger"/>
    <trip id="267" depart="1936.27" from="43135644#0" to="73372559" type="passenger"/>
    <trip id="268" depart="1938.33" from="378479743#5" to="-715835444#4" type="passenger"/>
    <trip id="269" depart="1946.05" from="378479743#1" to="-4295817#0" type="passenger"/>
    <trip id="270" depart="1946.13" from="4144040#2" to="-4295817#3" type="passenger"/>
    <trip id="271" depart="1952.38" from="-23508141#1" to="700236092#0" type="passenger"/>
    <trip id="272" depart="1953.47" from="1265069359" to="492925920#1" type="passenger"/>
    <trip id="273" depart="1971.92" from="378479743#0" to="59591195#1" type="passenger"/>
    <trip id="274" depart="1984.97" from="700236092#0" to="75392301#0" type="passenger"/>
    <trip id="275" depart="1989.97" from="624481020#0" to="378479743#3" type="passenger"/>
    <trip id="276" depart="1999.20" from="4019053#2" to="-150032770#1" type="passenger"/>
    <trip id="277" depart="2001.41" from="70205228#2" to="624481020#2" type="passenger"/>
    <trip id="278" depart="2044.64" from="-700440130#0" to="-4144040#2" type="passenger"/>
    <trip id="279" depart="2050.93" from="4295817#0" to="-700440136" type="passenger"/>
    <trip id="280" depart="2072.79" from="103958941#2" to="-1265069360#0" type="passenger"/>
    <trip id="281" depart="2079.37" from="700440129" to="23508224" type="passenger"/>
    <trip id="282" depart="2080.07" from="150032770#1" to="-378479743#2" type="passenger"/>
    <trip id="283" depart="2087.30" from="395456769#0" to="-150032770#2" type="passenger"/>
    <trip id="284" depart="2094.07" from="492925920#0" to="-4295817#0" type="passenger"/>
    <trip id="285" depart="2111.27" from="150032770#6" to="-715835444#3" type="passenger"/>
    <trip id="286" depart="2121.15" from="1265069359" to="4295817#1" type="passenger"/>
    <trip id="287" depart="2129.01" from="53207959#0" to="23508224" type="passenger"/>
    <trip id="288" depart="2161.28" from="-23015831" to="-150041551#1" type="passenger"/>
    <trip id="289" depart="2166.96" from="-4144040#1" to="378479743#4" type="passenger"/>
    <trip id="290" depart="2175.20" from="4195580#0" to="-624481020#3" type="passenger"/>
    <trip id="291" depart="2187.48" from="4144040#3" to="150041593" type="passenger"/>
    <trip id="292" depart="2187.98" from="150041565" to="-624481020#3" type="passenger"/>
    <trip id="293" depart="2196.04" from="492925920#1" to="-23508141#0" type="passenger"/>
    <trip id="294" depart="2196.15" from="150041551#1" to="-689912267#0" type="passenger"/>
    <trip id="295" depart="2199.56" from="4195580#1" to="150041594#0" type="passenger"/>
    <trip id="296" depart="2205.77" from="4144040#4" to="-150041551#0" type="passenger"/>
    <trip id="297" depart="2207.35" from="150032770#0" to="378479743#1" type="passenger"/>
    <trip id="298" depart="2209.66" from="-1290085526#1" to="-700440130#0" type="passenger"/>
    <trip id="299" depart="2212.44" from="-484022097" to="-378479743#1" type="passenger"/>
    <trip id="300" depart="2214.54" from="-689912267#0" to="-70205228#2" type="passenger"/>
    <trip id="301" depart="2222.26" from="-1290085526#1" to="44973978" type="passenger"/>
    <trip id="302" depart="2225.43" from="-4144040#4" to="116556688" type="passenger"/>
    <trip id="303" depart="2233.29" from="4295817#0" to="196656222#0" type="passenger"/>
    <trip id="304" depart="2234.37" from="624481020#4" to="59591195#1" type="passenger"/>
    <trip id="305" depart="2236.98" from="-196656222#0" to="700440128" type="passenger"/>
    <trip id="306" depart="2244.68" from="-150041551#0" to="-150032770#0" type="passenger"/>
    <trip id="307" depart="2245.00" from="70205228#0" to="700440128" type="passenger"/>
    <trip id="308" depart="2254.66" from="378479743#0" to="24509268" type="passenger"/>
    <trip id="309" depart="2261.44" from="4295817#1" to="150032770#0" type="passenger"/>
    <trip id="310" depart="2266.42" from="-23508224" to="-150032770#0" type="passenger"/>
    <trip id="311" depart="2268.40" from="-715835444#5" to="59591195#0" type="passenger"/>
    <trip id="312" depart="2271.28" from="38115188" to="624481020#2" type="passenger"/>
    <trip id="313" depart="2276.78" from="70205228#0" to="-196656222#1" type="passenger"/>
    <trip id="314" depart="2297.26" from="700236092#0" to="-53207957" type="passenger"/>
    <trip id="315" depart="2298.56" from="378479743#2" to="214812788#2" type="passenger"/>
    <trip id="316" depart="2306.15" from="150032770#0" to="-700440136" type="passenger"/>
    <trip id="317" depart="2310.09" from="103958941#2" to="-715835444#1" type="passenger"/>
    <trip id="318" depart="2311.52" from="-4144040#3" to="196656222#2" type="passenger"/>
    <trip id="319" depart="2315.65" from="-23508224" to="196656222#2" type="passenger"/>
    <trip id="320" depart="2323.26" from="700440139" to="-715835444#4" type="passenger"/>
    <trip id="321" depart="2333.69" from="449551311" to="60263960" type="passenger"/>
    <trip id="322" depart="2338.42" from="60263960" to="-51873805" type="passenger"/>
    <trip id="323" depart="2357.21" from="-378479743#5" to="-4195580#0" type="passenger"/>
    <trip id="324" depart="2358.09" from="378479743#5" to="492925920#1" type="passenger"/>
    <trip id="325" depart="2370.55" from="4144040#1" to="-4144040#1" type="passenger"/>
    <trip id="326" depart="2371.39" from="53207959#0" to="182982119#0" type="passenger"/>
    <trip id="327" depart="2375.51" from="492925920#1" to="492925920#1" type="passenger"/>
    <trip id="328" depart="2378.40" from="150041578" to="70205228#1" type="passenger"/>
    <trip id="329" depart="2385.36" from="35574708#1" to="378479753" type="passenger"/>