<?xml version="1.0" encoding="UTF-8"?>

<!-- generated on 2024-09-18 19:42:31.070342 by osmWebWizard.py UNKNOWN
<configuration>
    <net-file value="/opt/homebrew/Cellar/sumo/1.20.0/share/sumo/tools/2024-09-18-19-42-22/osm.net.xml.gz"/>
    <ptlines-file value="/opt/homebrew/Cellar/sumo/1.20.0/share/sumo/tools/2024-09-18-19-42-22/osm_ptlines.xml"/>
    <ptstops-file value="/opt/homebrew/Cellar/sumo/1.20.0/share/sumo/tools/2024-09-18-19-42-22/osm_stops.add.xml"/>
    <output-file value="/opt/homebrew/Cellar/sumo/1.20.0/share/sumo/tools/2024-09-18-19-42-22/osm_pt.rou.xml"/>
    <stopinfos-file value="/opt/homebrew/Cellar/sumo/1.20.0/share/sumo/tools/2024-09-18-19-42-22/stopinfos.xml"/>
    <routes-file value="/opt/homebrew/Cellar/sumo/1.20.0/share/sumo/tools/2024-09-18-19-42-22/vehroutes.xml"/>
    <trips-file value="/opt/homebrew/Cellar/sumo/1.20.0/share/sumo/tools/2024-09-18-19-42-22/trips.trips.xml"/>
    <min-stops value="0"/>
    <extend-to-fringe value="True"/>
    <random-begin value="True"/>
    <seed value="42"/>
    <ignore-errors value="True"/>
    <vtype-prefix value="pt_"/>
    <verbose value="True"/>
</configuration>
-->

<routes xmlns:xsi="http://www.w3.org/2001/XMLSchema-instance" xsi:noNamespaceSchemaLocation="http://sumo.dlr.de/xsd/routes_file.xsd">
    <vType id="pt_bus" vClass="bus"/>
    <vType id="pt_tram" vClass="tram"/>
    <vType id="pt_train" vClass="rail"/>
    <vType id="pt_subway" vClass="subway"/>
    <vType id="pt_light_rail" vClass="rail_urban"/>
    <vType id="pt_monorail" vClass="rail_urban"/>
    <vType id="pt_trolleybus" vClass="bus"/>
    <vType id="pt_minibus" vClass="bus"/>
    <vType id="pt_share_taxi" vClass="taxi"/>
    <vType id="pt_aerialway" vClass="cable_car" length="2.5" width="2" personCapacity="4"/>
    <vType id="pt_ferry" vClass="ship"/>
    <route id="pt_bus_5:0" edges="-159171321 -313957536#0 -159171330 -228086399#1 -471111391 -159171348 -159171324#0" >
        <stop busStop="-1600991190" duration="20" until="85.0"/> <!-- Hochschule -->
    </route>
    <route id="pt_bus_41:0" edges="-159171321 -313957536#0 -159171330 -228086399#1 -471111391 -159171348 -159171324#0" >
        <stop busStop="-1600991190" duration="20" until="87.0"/> <!-- Hochschule -->
    </route>
    <route id="pt_bus_47:0" edges="-159171321 -313957536#0 -159171330 -228086399#1 -471111391 -159171348 -159171324#0" >
        <stop busStop="-1600991190" duration="20" until="121.0"/> <!-- Hochschule -->
    </route>
    <route id="pt_bus_40:0" edges="-159171321 -313957536#0 -159171330 -228086399#1 -471111391 -159171348 -159171324#0" >
        <stop busStop="-1600991190" duration="20" until="83.0"/> <!-- Hochschule -->
    </route>
    <route id="pt_bus_5:1" edges="159171324#0 159171348 103088982#0 228086399#0 159171330 313957536#0 159171321" >
        <stop busStop="10086938348" duration="20" until="135.0"/> <!-- Hochschule -->
    </route>
    <route id="pt_bus_40:1" edges="159171324#0 159171348 103088982#0 228086399#0 159171330 313957536#0 159171321" >
        <stop busStop="10086938348" duration="20" until="124.0"/> <!-- Hochschule -->
    </route>
    <route id="pt_bus_15:0" edges="-23090819 -984033386#2 -313957536#0 -159171330 -228086399#1 -471111391 -159171348 -159171324#0" >
        <stop busStop="-1600991190" duration="20" until="69.0"/> <!-- Hochschule -->
    </route>
    <route id="pt_bus_15:1" edges="159171324#0 159171348 103088982#0 228086399#0 159171330 313957536#0 984033386#2 23090819" >
        <stop busStop="10086938348" duration="20" until="125.0"/> <!-- Hochschule -->
    </route>
    <route id="pt_bus_41:1" edges="159171324#0 159171348 103088982#0 228086399#0 159171330 313957536#0 159171321" >
        <stop busStop="10086938348" duration="20" until="101.0"/> <!-- Hochschule -->
    </route>
    <route id="pt_bus_47:1" edges="159171324#0 159171348 103088982#0 228086399#0 159171330 313957536#0 159171321" >
        <stop busStop="10086938348" duration="20" until="74.0"/> <!-- Hochschule -->
    </route>
    <flow id="pt_bus_5:0" type="pt_bus" route="pt_bus_5:0" begin="15.0" end="3615.0" period="600" line="5:0" >
        <param key="name" value="Bus 5: Dörrmorsbach =&gt; Gailbach =&gt; Hbf/ROB"/>
        <param key="completeness" value="0.02"/>
    </flow>
    <flow id="pt_bus_41:0" type="pt_bus" route="pt_bus_41:0" begin="52.0" end="3652.0" period="600" line="41:0" >
        <param key="name" value="Bus 41: Hösbach-Bahnhof =&gt; Bessenbach =&gt; Aschaffenburg"/>
        <param key="completeness" value="0.02"/>
    </flow>
    <flow id="pt_bus_47:0" type="pt_bus" route="pt_bus_47:0" begin="57.0" end="3657.0" period="600" line="47:0" >
        <param key="name" value="Bus 47: Rothenbuch =&gt; Weibersbrunn =&gt; Hösbach Bahnhof =&gt; Bessenbach =&gt; Aschaffenburg"/>
        <param key="completeness" value="0.01"/>
    </flow>
    <flow id="pt_bus_40:0" type="pt_bus" route="pt_bus_40:0" begin="133.0" end="3733.0" period="600" line="40:0" >
        <param key="name" value="Bus 40: Dammbach =&gt; Mespelbrunn =&gt; Haibach =&gt; Aschaffenburg"/>
        <param key="completeness" value="0.01"/>
    </flow>
    <flow id="pt_bus_5:1" type="pt_bus" route="pt_bus_5:1" begin="165.0" end="3765.0" period="600" line="5:1" >
        <param key="name" value="Bus 5: Hbf/ROB =&gt; Gailbach =&gt; Dörrmorsbach"/>
        <param key="completeness" value="0.02"/>
    </flow>
    <flow id="pt_bus_40:1" type="pt_bus" route="pt_bus_40:1" begin="253.0" end="3853.0" period="600" line="40:1" >
        <param key="name" value="Bus 40: Aschaffenburg =&gt; Haibach =&gt; Mespelbrunn =&gt; Dammbach"/>
        <param key="completeness" value="0.01"/>
    </flow>
    <flow id="pt_bus_15:0" type="pt_bus" route="pt_bus_15:0" begin="383.0" end="3983.0" period="600" line="15:0" >
        <param key="name" value="Bus 15: Schweinheim, Steubenstraße =&gt; Hbf/ROB"/>
        <param key="completeness" value="0.03"/>
    </flow>
    <flow id="pt_bus_15:1" type="pt_bus" route="pt_bus_15:1" begin="406.0" end="4006.0" period="600" line="15:1" >
        <param key="name" value="Bus 15: Hbf/ROB =&gt; Schweinheim, Steubenstraße"/>
        <param key="completeness" value="0.04"/>
    </flow>
    <flow id="pt_bus_41:1" type="pt_bus" route="pt_bus_41:1" begin="467.0" end="4067.0" period="600" line="41:1" >
        <param key="name" value="Bus 41: Aschaffenburg =&gt; Bessenbach =&gt; Hösbach-Bahnhof"/>
        <param key="completeness" value="0.02"/>
    </flow>
    <flow id="pt_bus_47:1" type="pt_bus" route="pt_bus_47:1" begin="535.0" end="4135.0" period="600" line="47:1" >
        <param key="name" value="Bus 47: Aschaffenburg =&gt; Bessenbach =&gt; Hösbach Bahnhof =&gt; Rothenbuch"/>
        <param key="completeness" value="0.01"/>
    </flow>
</routes>
