<?xml version="1.0" encoding="UTF-8"?>

<!-- generated on 2024-09-18 19:42:30.712250 by $Id: ptlines2flows.py v1_3_1+0313-ccb31df3eb jakob.erdmann@dlr.de 2019-09-02 13:26:32 +0200 $ UNKNOWN
<configuration>
    <net-file value="/opt/homebrew/Cellar/sumo/1.20.0/share/sumo/tools/2024-09-18-19-42-22/osm.net.xml.gz"/>
    <ptlines-file value="/opt/homebrew/Cellar/sumo/1.20.0/share/sumo/tools/2024-09-18-19-42-22/osm_ptlines.xml"/>
    <ptstops-file value="/opt/homebrew/Cellar/sumo/1.20.0/share/sumo/tools/2024-09-18-19-42-22/osm_stops.add.xml"/>
    <output-file value="/opt/homebrew/Cellar/sumo/1.20.0/share/sumo/tools/2024-09-18-19-42-22/osm_pt.rou.xml"/>
    <stopinfos-file value="/opt/homebrew/Cellar/sumo/1.20.0/share/sumo/tools/2024-09-18-19-42-22/stopinfos.xml"/>
    <routes-file value="/opt/homebrew/Cellar/sumo/1.20.0/share/sumo/tools/2024-09-18-19-42-22/vehroutes.xml"/>
    <trips-file value="/opt/homebrew/Cellar/sumo/1.20.0/share/sumo/tools/2024-09-18-19-42-22/trips.trips.xml"/>
    <min-stops value="0"/>
    <extend-to-fringe value="True"/>
    <random-begin value="True"/>
    <seed value="42"/>
    <ignore-errors value="True"/>
    <vtype-prefix value="pt_"/>
    <verbose value="True"/>
</configuration>
-->

<routes xmlns:xsi="http://www.w3.org/2001/XMLSchema-instance" xsi:noNamespaceSchemaLocation="http://sumo.dlr.de/xsd/routes_file.xsd">
    <vType id="pt_bus" vClass="bus" speedFactor="0.95"/>
    <vType id="pt_tram" vClass="tram" speedFactor="1.0"/>
    <vType id="pt_train" vClass="rail"/>
    <vType id="pt_subway" vClass="subway"/>
    <vType id="pt_light_rail" vClass="rail_urban"/>
    <vType id="pt_monorail" vClass="rail_urban"/>
    <vType id="pt_trolleybus" vClass="bus" speedFactor="0.95"/>
    <vType id="pt_minibus" vClass="bus" speedFactor="0.95"/>
    <vType id="pt_share_taxi" vClass="taxi" speedFactor="0.95"/>
    <vType id="pt_aerialway" vClass="cable_car" length="2.5" width="2" personCapacity="4"/>
    <vType id="pt_ferry" vClass="ship"/>
    <trip id="0_bus_5:0" type="pt_bus" depart="15.0" departLane="best" from="-159171321" to="-159171324#0">
        <stop busStop="-1600991190" duration="30"/>  <!-- Hochschule -->
    </trip>
    <trip id="1_bus_41:0" type="pt_bus" depart="17.0" departLane="best" from="-159171321" to="-159171324#0">
        <stop busStop="-1600991190" duration="30"/>  <!-- Hochschule -->
    </trip>
    <trip id="2_bus_47:0" type="pt_bus" depart="52.0" departLane="best" from="-159171321" to="-159171324#0">
        <stop busStop="-1600991190" duration="30"/>  <!-- Hochschule -->
    </trip>
    <trip id="3_bus_40:0" type="pt_bus" depart="133.0" departLane="best" from="-159171321" to="-159171324#0">
        <stop busStop="-1600991190" duration="30"/>  <!-- Hochschule -->
    </trip>
    <trip id="4_bus_5:1" type="pt_bus" depart="165.0" departLane="best" from="159171324#0" to="159171321">
        <stop busStop="10086938348" duration="30"/>  <!-- Hochschule -->
    </trip>
    <trip id="5_bus_40:1" type="pt_bus" depart="253.0" departLane="best" from="159171324#0" to="159171321">
        <stop busStop="10086938348" duration="30"/>  <!-- Hochschule -->
    </trip>
    <trip id="6_bus_15:0" type="pt_bus" depart="383.0" departLane="best" from="-23090819" to="-159171324#0">
        <stop busStop="-1600991190" duration="30"/>  <!-- Hochschule -->
    </trip>
    <trip id="7_bus_15:1" type="pt_bus" depart="406.0" departLane="best" from="159171324#0" to="23090819">
        <stop busStop="10086938348" duration="30"/>  <!-- Hochschule -->
    </trip>
    <trip id="8_bus_41:1" type="pt_bus" depart="441.0" departLane="best" from="159171324#0" to="159171321">
        <stop busStop="10086938348" duration="30"/>  <!-- Hochschule -->
    </trip>
    <trip id="9_bus_47:1" type="pt_bus" depart="535.0" departLane="best" from="159171324#0" to="159171321">
        <stop busStop="10086938348" duration="30"/>  <!-- Hochschule -->
    </trip>
</routes>
