<?xml version="1.0" encoding="UTF-8"?>

<!-- generated on 2024-09-22 21:16:26.695926 by osmWebWizard.py UNKNOWN
<configuration>
    <net-file value="/opt/homebrew/Cellar/sumo/1.20.0/share/sumo/tools/2024-09-22-21-16-21/osm.net.xml.gz"/>
    <output-trip-file value="/opt/homebrew/Cellar/sumo/1.20.0/share/sumo/tools/2024-09-22-21-16-21/osm.passenger.trips.xml"/>
    <route-file value="/opt/homebrew/Cellar/sumo/1.20.0/share/sumo/tools/2024-09-22-21-16-21/osm.passenger.rou.xml"/>
    <prefix value="veh"/>
    <trip-attributes value="departLane=&quot;best&quot;"/>
    <fringe-start-attributes value="departSpeed=&quot;max&quot;"/>
    <vehicle-class value="passenger"/>
    <lanes value="True"/>
    <fringe-factor value="5"/>
    <allow-fringe.min-length value="1000.0"/>
    <via-edge-types value="highway.motorway,highway.motorway_link,highway.trunk_link,highway.primary_link,highway.secondary_link,highway.tertiary_link"/>
    <min-distance value="300.0"/>
    <min-distance.fringe value="10.0"/>
    <remove-loops value="True"/>
    <validate value="True"/>
    <insertion-density value="12.0"/>
</configuration>
-->

<!-- generated on 2024-09-22 21:16:26 by Eclipse SUMO duarouter Version 1.20.0
<configuration xmlns:xsi="http://www.w3.org/2001/XMLSchema-instance" xsi:noNamespaceSchemaLocation="http://sumo.dlr.de/xsd/duarouterConfiguration.xsd">

    <input>
        <net-file value="/opt/homebrew/Cellar/sumo/1.20.0/share/sumo/tools/2024-09-22-21-16-21/osm.net.xml.gz"/>
        <route-files value="/opt/homebrew/Cellar/sumo/1.20.0/share/sumo/tools/2024-09-22-21-16-21/osm.passenger.trips.xml"/>
    </input>

    <output>
        <output-file value="/opt/homebrew/Cellar/sumo/1.20.0/share/sumo/tools/2024-09-22-21-16-21/osm.passenger.trips.xml.tmp"/>
        <alternatives-output value="NUL"/>
        <write-trips value="true"/>
    </output>

    <processing>
        <remove-loops value="true"/>
    </processing>

    <time>
        <begin value="0.0"/>
        <end value="3600.0"/>
    </time>

    <report>
        <no-warnings value="true"/>
        <ignore-errors value="true"/>
        <no-step-log value="true"/>
    </report>

</configuration>
-->

<routes xmlns:xsi="http://www.w3.org/2001/XMLSchema-instance" xsi:noNamespaceSchemaLocation="http://sumo.dlr.de/xsd/routes_file.xsd">
    <vType id="veh_passenger" vClass="passenger"/>
    <trip id="veh0" type="veh_passenger" depart="0.00" departLane="best" departSpeed="max" from="194073677#0" to="-137630045#1"/>
    <trip id="veh1" type="veh_passenger" depart="193.30" departLane="best" departSpeed="max" from="6228081" to="-137630045#1"/>
    <trip id="veh2" type="veh_passenger" depart="386.61" departLane="best" departSpeed="max" from="-34848160" to="-137630045#1"/>
    <trip id="veh3" type="veh_passenger" depart="579.91" departLane="best" departSpeed="max" from="-1119854969#1" to="-6228081"/>
    <trip id="veh4" type="veh_passenger" depart="773.21" departLane="best" departSpeed="max" from="6228081" to="31313667#0"/>
    <trip id="veh5" type="veh_passenger" depart="966.51" departLane="best" departSpeed="max" from="137630045#0" to="34848160"/>
    <trip id="veh6" type="veh_passenger" depart="1159.82" departLane="best" departSpeed="max" from="190447766" to="-339201185"/>
    <trip id="veh7" type="veh_passenger" depart="1353.12" departLane="best" departSpeed="max" from="6228081" to="31313667#0"/>
    <trip id="veh8" type="veh_passenger" depart="1546.42" departLane="best" departSpeed="max" from="194073677#0" to="-339201185"/>
    <trip id="veh9" type="veh_passenger" depart="1739.72" departLane="best" departSpeed="max" from="-1119854969#1" to="-6228081"/>
    <trip id="veh10" type="veh_passenger" depart="1933.03" departLane="best" departSpeed="max" from="-1119854969#1" to="34848160"/>
    <trip id="veh11" type="veh_passenger" depart="2126.33" departLane="best" departSpeed="max" from="6228081" to="31313667#0"/>
    <trip id="veh12" type="veh_passenger" depart="2319.63" departLane="best" departSpeed="max" from="-1119854969#1" to="-6228081"/>
    <trip id="veh13" type="veh_passenger" depart="2512.94" departLane="best" departSpeed="max" from="-1119854969#1" to="222328410"/>
    <trip id="veh14" type="veh_passenger" depart="2706.24" departLane="best" from="1151064403" to="31313667#0"/>
    <trip id="veh15" type="veh_passenger" depart="2899.54" departLane="best" departSpeed="max" from="137630045#0" to="1151064396"/>
    <trip id="veh16" type="veh_passenger" depart="3092.84" departLane="best" departSpeed="max" from="6228081" to="-137630045#1"/>
    <trip id="veh17" type="veh_passenger" depart="3286.15" departLane="best" departSpeed="max" from="-1119854969#1" to="-6228081"/>
    <trip id="veh18" type="veh_passenger" depart="3479.45" departLane="best" departSpeed="max" from="137630045#0" to="-6228081"/>
</routes>
