<?xml version="1.0" encoding="UTF-8"?>

<!-- generated on 2024-11-02 21:31:31 by Eclipse SUMO netedit Version 1.20.0
<configuration xmlns:xsi="http://www.w3.org/2001/XMLSchema-instance" xsi:noNamespaceSchemaLocation="http://sumo.dlr.de/xsd/neteditConfiguration.xsd">

    <input>
        <additional-files value="/opt/homebrew/Cellar/sumo/1.20.0/share/sumo/tools/2024-10-08-17-29-51/241031/bus_stops.add.xml"/>
        <sumo-net-file value="/opt/homebrew/Cellar/sumo/1.20.0/share/sumo/tools/2024-10-08-17-29-51/241102/241102.net.xml"/>
    </input>

    <output>
        <output-file value="/opt/homebrew/Cellar/sumo/1.20.0/share/sumo/tools/2024-10-08-17-29-51/241102/241102.net.xml"/>
        <output.street-names value="true"/>
    </output>

    <processing>
        <geometry.min-radius.fix.railways value="false"/>
        <geometry.max-grade.fix value="false"/>
        <offset.disable-normalization value="true"/>
        <lefthand value="0"/>
    </processing>

    <junctions>
        <no-internal-links value="false"/>
        <no-turnarounds value="true"/>
        <junctions.corner-detail value="5"/>
        <junctions.limit-turn-speed value="5.50"/>
        <rectangular-lane-cut value="0"/>
    </junctions>

    <pedestrian>
        <walkingareas value="1"/>
    </pedestrian>

</configuration>
-->

<net version="1.20" junctionCornerDetail="5" walkingareas="true" limitTurnSpeed="5.50" xmlns:xsi="http://www.w3.org/2001/XMLSchema-instance" xsi:noNamespaceSchemaLocation="http://sumo.dlr.de/xsd/net_file.xsd">

    <location netOffset="-475280.99,-5524462.29" convBoundary="0.00,-1.29,1257.55,341.19" origBoundary="8.655994,49.872078,8.673731,49.875046" projParameter="+proj=utm +zone=32 +ellps=WGS84 +datum=WGS84 +units=m +no_defs"/>

    <type id="cycleway.lane|highway.primary" priority="12" numLanes="2" speed="13.89" disallow="pedestrian tram rail_urban rail rail_electric rail_fast ship container cable_car subway aircraft wheelchair scooter drone" oneway="0" sidewalkWidth="3.00" bikeLaneWidth="1.25"/>
    <type id="cycleway.lane|highway.secondary" priority="11" numLanes="1" speed="13.89" disallow="pedestrian tram rail_urban rail rail_electric rail_fast ship container cable_car subway aircraft wheelchair scooter drone" oneway="0" sidewalkWidth="3.00" bikeLaneWidth="1.25"/>
    <type id="cycleway.track|highway.primary" priority="12" numLanes="2" speed="13.89" disallow="pedestrian tram rail_urban rail rail_electric rail_fast ship container cable_car subway aircraft wheelchair scooter drone" oneway="0" sidewalkWidth="3.00" bikeLaneWidth="1.50"/>
    <type id="cycleway.track|highway.secondary" priority="11" numLanes="1" speed="13.89" disallow="pedestrian tram rail_urban rail rail_electric rail_fast ship container cable_car subway aircraft wheelchair scooter drone" oneway="0" sidewalkWidth="3.00" bikeLaneWidth="1.50"/>
    <type id="highway.footway" priority="1" numLanes="1" speed="2.78" allow="pedestrian" oneway="1" width="2.00"/>
    <type id="highway.path" priority="1" numLanes="1" speed="5.56" allow="pedestrian bicycle" oneway="0" width="2.00"/>
    <type id="highway.pedestrian" priority="1" numLanes="1" speed="2.78" allow="pedestrian" oneway="1" width="2.00"/>
    <type id="highway.primary" priority="12" numLanes="2" speed="13.89" disallow="pedestrian tram rail_urban rail rail_electric rail_fast ship container cable_car subway aircraft wheelchair scooter drone" oneway="0" sidewalkWidth="3.00"/>
    <type id="highway.primary_link" priority="7" numLanes="1" speed="13.89" disallow="pedestrian tram rail_urban rail rail_electric rail_fast ship container cable_car subway aircraft wheelchair scooter drone" oneway="0" sidewalkWidth="3.00"/>
    <type id="highway.residential" priority="3" numLanes="1" speed="13.89" disallow="pedestrian tram rail_urban rail rail_electric rail_fast ship container cable_car subway aircraft wheelchair scooter drone" oneway="0" sidewalkWidth="2.00"/>
    <type id="highway.secondary" priority="11" numLanes="1" speed="13.89" disallow="pedestrian tram rail_urban rail rail_electric rail_fast ship container cable_car subway aircraft wheelchair scooter drone" oneway="0" sidewalkWidth="3.00"/>
    <type id="highway.service" priority="1" numLanes="1" speed="5.56" allow="pedestrian delivery bicycle" oneway="0"/>
    <type id="highway.steps" priority="1" numLanes="1" speed="1.39" allow="pedestrian" oneway="1" width="2.00"/>
    <type id="highway.unclassified" priority="4" numLanes="1" speed="13.89" disallow="pedestrian tram rail_urban rail rail_electric rail_fast ship container cable_car subway aircraft wheelchair scooter drone" oneway="0" sidewalkWidth="2.00"/>
    <type id="railway.tram" priority="17" numLanes="1" speed="13.89" allow="tram" oneway="1"/>

    <edge id=":10574544865_0" function="internal">
        <lane id=":10574544865_0_0" index="0" allow="tram" speed="13.89" length="2.81" shape="16.71,170.29 17.23,167.53"/>
    </edge>
    <edge id=":10574544865_1" function="internal">
        <lane id=":10574544865_1_0" index="0" allow="tram" speed="13.89" length="2.81" shape="16.78,170.30 17.23,167.53"/>
    </edge>
    <edge id=":10574544866_0" function="internal">
        <lane id=":10574544866_0_0" index="0" allow="tram" speed="13.89" length="16.01" shape="22.68,141.22 23.24,137.35 23.37,133.25 23.06,129.16 22.29,125.34"/>
    </edge>
    <edge id=":10574544866_1" function="internal">
        <lane id=":10574544866_1_0" index="0" allow="tram" speed="13.89" length="15.84" shape="22.68,141.22 23.46,137.41 24.31,133.46 25.26,129.54 26.37,125.82"/>
    </edge>
    <edge id=":10652683198_0" function="internal">
        <lane id=":10652683198_0_0" index="0" allow="pedestrian delivery bicycle" speed="3.65" length="4.67" shape="737.27,239.06 736.12,239.93 735.23,240.04 734.61,239.40 734.25,238.00"/>
    </edge>
    <edge id=":10724309545_0" function="internal">
        <lane id=":10724309545_0_0" index="0" allow="pedestrian bicycle" speed="5.56" length="5.30" width="2.00" shape="732.29,213.23 731.28,213.32 730.33,213.90 729.43,214.98 728.59,216.54"/>
    </edge>
    <edge id=":10724309545_1" function="internal">
        <lane id=":10724309545_1_0" index="0" allow="pedestrian delivery bicycle" speed="5.56" length="7.15" shape="732.29,213.23 725.22,212.15"/>
    </edge>
    <edge id=":10724309545_2" function="internal">
        <lane id=":10724309545_2_0" index="0" allow="pedestrian delivery bicycle" speed="3.65" length="4.67" shape="732.29,213.23 731.22,212.26 730.95,211.41 731.47,210.68 732.77,210.07"/>
    </edge>
    <edge id=":10724309545_3" function="internal">
        <lane id=":10724309545_3_0" index="0" allow="pedestrian delivery bicycle" speed="5.56" length="7.15" shape="725.71,208.98 732.77,210.07"/>
    </edge>
    <edge id=":10724309545_4" function="internal">
        <lane id=":10724309545_4_0" index="0" allow="pedestrian bicycle" speed="5.56" length="9.87" width="2.00" shape="725.71,208.98 728.08,209.79 729.36,211.32 729.53,213.57 728.59,216.54"/>
    </edge>
    <edge id=":10724309545_5" function="internal">
        <lane id=":10724309545_5_0" index="0" allow="pedestrian delivery bicycle" speed="3.65" length="4.67" shape="725.71,208.98 726.78,209.96 727.05,210.81 726.53,211.54 725.22,212.15"/>
    </edge>
    <edge id=":10724309545_6" function="internal">
        <lane id=":10724309545_6_0" index="0" allow="pedestrian bicycle" speed="4.41" length="4.78" width="2.00" shape="726.77,215.73 727.19,214.33 727.08,213.27 726.42,212.54 725.22,212.15"/>
    </edge>
    <edge id=":10724309545_7" function="internal">
        <lane id=":10724309545_7_0" index="0" allow="pedestrian bicycle" speed="5.56" length="8.80" width="2.00" shape="726.77,215.73 728.17,213.07 729.64,211.23 731.17,210.24 732.77,210.07"/>
    </edge>
    <edge id=":10724309545_8" function="internal">
        <lane id=":10724309545_8_0" index="0" allow="pedestrian bicycle" speed="2.89" length="2.92" width="2.00" shape="726.77,215.73 727.53,215.25 728.09,215.22 728.44,215.66 728.59,216.54"/>
    </edge>
    <edge id=":10724309545_w0" function="walkingarea">
        <lane id=":10724309545_w0_0" index="0" allow="pedestrian" speed="2.78" length="5.98" width="6.40" shape="732.04,214.81 733.02,208.49 725.95,207.40 724.98,213.73 725.74,214.01 725.94,214.24 726.03,214.54 726.00,214.90 725.85,215.33 729.51,216.95 730.26,215.66 730.67,215.23 731.10,214.95 731.56,214.81"/>
    </edge>
    <edge id=":11010079315_0" function="internal">
        <lane id=":11010079315_0_0" index="0" allow="pedestrian bicycle" speed="4.27" length="4.11" width="2.00" shape="668.24,214.80 667.11,214.61 666.23,214.84 665.63,215.51 665.29,216.62"/>
    </edge>
    <edge id=":11010079315_1" function="internal">
        <lane id=":11010079315_1_0" index="0" allow="pedestrian bicycle" speed="5.56" length="7.34" width="2.00" shape="668.24,214.80 666.33,213.92 665.04,212.73 664.38,211.21 664.35,209.38"/>
    </edge>
    <edge id=":11010079315_2" function="internal">
        <lane id=":11010079315_2_0" index="0" allow="pedestrian bicycle" speed="2.89" length="2.92" width="2.00" shape="668.24,214.80 667.68,214.09 667.60,213.54 667.99,213.14 668.86,212.90"/>
    </edge>
    <edge id=":11010079315_3" function="internal">
        <lane id=":11010079315_3_0" index="0" allow="pedestrian bicycle" speed="4.96" length="4.51" width="2.00" shape="666.33,209.66 666.37,210.73 666.80,211.63 667.63,212.35 668.86,212.90"/>
    </edge>
    <edge id=":11010079315_4" function="internal">
        <lane id=":11010079315_4_0" index="0" allow="pedestrian bicycle" speed="5.56" length="7.03" width="2.00" shape="666.33,209.66 665.29,216.62"/>
    </edge>
    <edge id=":11010079315_5" function="internal">
        <lane id=":11010079315_5_0" index="0" allow="pedestrian bicycle" speed="2.89" length="2.92" width="2.00" shape="666.33,209.66 665.73,210.33 665.20,210.51 664.74,210.19 664.35,209.38"/>
    </edge>
    <edge id=":11010079315_6" function="internal">
        <lane id=":11010079315_6_0" index="0" allow="pedestrian bicycle" speed="5.56" length="7.00" width="2.00" shape="663.31,216.30 664.35,209.38"/>
    </edge>
    <edge id=":11010079315_7" function="internal">
        <lane id=":11010079315_7_0" index="0" allow="pedestrian bicycle" speed="5.56" length="7.72" width="2.00" shape="663.31,216.30 663.95,214.24 665.09,212.98 666.73,212.53 668.86,212.90"/>
    </edge>
    <edge id=":11010079315_8" function="internal">
        <lane id=":11010079315_8_0" index="0" allow="pedestrian bicycle" speed="2.89" length="2.92" width="2.00" shape="663.31,216.30 663.92,215.64 664.46,215.47 664.91,215.80 665.29,216.62"/>
    </edge>
    <edge id=":11010079315_w0" function="walkingarea">
        <lane id=":11010079315_w0_0" index="0" allow="pedestrian" speed="2.78" length="5.13" width="4.00" shape="667.94,215.75 669.16,211.94 668.05,211.41 667.68,211.08 667.43,210.70 667.31,210.27 667.32,209.80 663.36,209.25 662.32,216.15 666.27,216.77 666.56,216.00 666.81,215.78 667.12,215.66 667.49,215.65"/>
    </edge>
    <edge id=":11010079316_0" function="internal">
        <lane id=":11010079316_0_0" index="0" allow="pedestrian bicycle" speed="2.89" length="2.92" width="2.00" shape="661.71,239.21 661.10,239.87 660.56,240.04 660.11,239.71 659.73,238.89"/>
    </edge>
    <edge id=":11010079320_0" function="internal">
        <lane id=":11010079320_0_0" index="0" allow="pedestrian bicycle" speed="5.13" length="3.99" width="2.00" shape="665.36,233.37 664.10,233.74 663.17,234.23 662.57,234.84 662.28,235.56"/>
    </edge>
    <edge id=":11010079320_1" function="internal">
        <lane id=":11010079320_1_0" index="0" allow="pedestrian bicycle" speed="5.41" length="8.12" width="2.00" shape="665.36,233.37 663.26,233.47 661.90,232.66 661.28,230.95 661.40,228.33"/>
    </edge>
    <edge id=":11010079320_2" function="internal">
        <lane id=":11010079320_2_0" index="0" allow="pedestrian bicycle" speed="2.93" length="3.06" width="2.00" shape="665.36,233.37 664.62,232.78 664.40,232.24 664.70,231.74 665.53,231.28"/>
    </edge>
    <edge id=":11010079320_3" function="internal">
        <lane id=":11010079320_3_0" index="0" allow="pedestrian bicycle" speed="4.11" length="4.33" width="2.00" shape="663.38,228.64 663.32,230.02 663.66,230.92 664.39,231.34 665.53,231.28"/>
    </edge>
    <edge id=":11010079320_4" function="internal">
        <lane id=":11010079320_4_0" index="0" allow="pedestrian bicycle" speed="5.56" length="7.01" width="2.00" shape="663.38,228.64 662.28,235.56"/>
    </edge>
    <edge id=":11010079320_5" function="internal">
        <lane id=":11010079320_5_0" index="0" allow="pedestrian bicycle" speed="2.89" length="2.92" width="2.00" shape="663.38,228.64 662.77,229.30 662.23,229.47 661.78,229.14 661.40,228.33"/>
    </edge>
    <edge id=":11010079320_6" function="internal">
        <lane id=":11010079320_6_0" index="0" allow="pedestrian bicycle" speed="5.56" length="7.01" width="2.00" shape="660.31,235.25 661.40,228.33"/>
    </edge>
    <edge id=":11010079320_7" function="internal">
        <lane id=":11010079320_7_0" index="0" allow="pedestrian bicycle" speed="5.56" length="6.96" width="2.00" shape="660.31,235.25 660.81,233.91 661.84,232.81 663.42,231.93 665.53,231.28"/>
    </edge>
    <edge id=":11010079320_8" function="internal">
        <lane id=":11010079320_8_0" index="0" allow="pedestrian bicycle" speed="2.89" length="2.92" width="2.00" shape="660.31,235.25 660.92,234.59 661.45,234.42 661.91,234.74 662.28,235.56"/>
    </edge>
    <edge id=":11010079320_w0" function="walkingarea">
        <lane id=":11010079320_w0_0" index="0" allow="pedestrian" speed="2.78" length="5.05" width="4.00" shape="665.27,234.39 665.61,230.24 664.79,230.23 664.54,230.05 664.38,229.75 664.32,229.33 664.37,228.80 660.42,228.17 659.32,235.10 663.27,235.72 663.66,234.99 663.99,234.77 664.40,234.62 664.85,234.50"/>
    </edge>
    <edge id=":11010079326_0" function="internal">
        <lane id=":11010079326_0_0" index="0" allow="pedestrian bicycle" speed="4.70" length="4.64" width="2.00" shape="669.74,204.71 668.57,204.59 667.66,204.97 667.03,205.84 666.67,207.20"/>
    </edge>
    <edge id=":11010079326_1" function="internal">
        <lane id=":11010079326_1_0" index="0" allow="pedestrian delivery bicycle" speed="5.56" length="7.04" shape="669.74,204.71 662.97,202.82"/>
    </edge>
    <edge id=":11010079326_2" function="internal">
        <lane id=":11010079326_2_0" index="0" allow="pedestrian delivery bicycle" speed="3.65" length="4.67" shape="669.74,204.71 668.80,203.62 668.63,202.74 669.23,202.08 670.60,201.63"/>
    </edge>
    <edge id=":11010079326_3" function="internal">
        <lane id=":11010079326_3_0" index="0" allow="pedestrian delivery bicycle" speed="5.56" length="7.04" shape="663.83,199.74 670.60,201.63"/>
    </edge>
    <edge id=":11010079326_4" function="internal">
        <lane id=":11010079326_4_0" index="0" allow="pedestrian bicycle" speed="5.56" length="8.74" width="2.00" shape="663.83,199.74 665.41,200.60 666.41,202.13 666.83,204.33 666.67,207.20"/>
    </edge>
    <edge id=":11010079326_5" function="internal">
        <lane id=":11010079326_5_0" index="0" allow="pedestrian delivery bicycle" speed="3.65" length="4.67" shape="663.83,199.74 664.77,200.83 664.94,201.71 664.34,202.37 662.97,202.82"/>
    </edge>
    <edge id=":11010079326_6" function="internal">
        <lane id=":11010079326_6_0" index="0" allow="pedestrian bicycle" speed="5.06" length="4.89" width="2.00" shape="664.69,206.92 664.76,205.36 664.50,204.16 663.90,203.31 662.97,202.82"/>
    </edge>
    <edge id=":11010079326_7" function="internal">
        <lane id=":11010079326_7_0" index="0" allow="pedestrian bicycle" speed="5.56" length="9.29" width="2.00" shape="664.69,206.92 665.41,204.09 666.63,202.26 668.37,201.44 670.60,201.63"/>
    </edge>
    <edge id=":11010079326_8" function="internal">
        <lane id=":11010079326_8_0" index="0" allow="pedestrian bicycle" speed="2.89" length="2.92" width="2.00" shape="664.69,206.92 665.29,206.25 665.82,206.07 666.28,206.39 666.67,207.20"/>
    </edge>
    <edge id=":11010079326_w0" function="walkingarea">
        <lane id=":11010079326_w0_0" index="0" allow="pedestrian" speed="2.78" length="5.84" width="6.40" shape="669.31,206.25 671.03,200.09 664.26,198.20 662.54,204.36 663.31,204.81 663.55,205.17 663.70,205.62 663.75,206.16 663.70,206.78 667.66,207.34 667.94,206.56 668.18,206.32 668.49,206.19 668.87,206.17"/>
    </edge>
    <edge id=":11010079335_0" function="internal">
        <lane id=":11010079335_0_0" index="0" allow="pedestrian bicycle" speed="2.89" length="2.92" width="2.00" shape="693.62,246.18 692.74,246.36 692.21,246.19 692.03,245.66 692.20,244.78"/>
    </edge>
    <edge id=":11010079336_0" function="internal">
        <lane id=":11010079336_0_0" index="0" allow="pedestrian bicycle" speed="2.89" length="2.92" width="2.00" shape="706.60,242.23 707.22,242.89 707.34,243.43 706.98,243.86 706.14,244.17"/>
    </edge>
    <edge id=":11752294608_0" function="internal">
        <lane id=":11752294608_0_0" index="0" disallow="pedestrian tram rail_urban rail rail_electric rail_fast ship container cable_car subway aircraft wheelchair scooter drone" speed="3.65" length="4.67" shape="-0.18,102.85 -1.14,101.77 -1.33,100.90 -0.74,100.22 0.62,99.75"/>
    </edge>
    <edge id=":11938903206_0" function="internal">
        <lane id=":11938903206_0_0" index="0" allow="pedestrian bicycle" speed="2.78" length="5.16" width="2.00" shape="94.59,227.31 89.75,225.51"/>
    </edge>
    <edge id=":11938903206_1" function="internal">
        <lane id=":11938903206_1_0" index="0" allow="pedestrian bicycle" speed="2.78" length="2.92" width="2.00" shape="94.59,227.31 94.04,226.60 93.97,226.04 94.37,225.65 95.24,225.42"/>
    </edge>
    <edge id=":11938903206_2" function="internal">
        <lane id=":11938903206_2_0" index="0" allow="pedestrian bicycle" speed="2.78" length="5.07" width="2.00" shape="90.49,223.65 95.24,225.42"/>
    </edge>
    <edge id=":11938903206_3" function="internal">
        <lane id=":11938903206_3_0" index="0" allow="pedestrian bicycle" speed="2.78" length="2.92" width="2.00" shape="90.49,223.65 91.00,224.39 91.05,224.95 90.63,225.32 89.75,225.51"/>
    </edge>
    <edge id=":11938903206_w0" function="walkingarea">
        <lane id=":11938903206_w0_0" index="0" allow="pedestrian" speed="2.78" length="4.30" width="4.00" shape="94.27,228.26 95.56,224.47 94.82,224.01 94.60,223.68 94.48,223.27 94.46,222.80 94.54,222.26 92.59,221.81 92.25,222.56 91.99,222.77 91.67,222.86 91.30,222.85 90.86,222.72 89.38,226.43"/>
    </edge>
    <edge id=":11938903207_w0" function="walkingarea">
        <lane id=":11938903207_w0_0" index="0" allow="pedestrian" speed="2.78" length="3.72" width="2.00" shape="97.56,215.88 97.99,213.93 93.11,212.85 92.67,214.81 93.45,215.15 93.69,215.41 93.83,215.74 93.86,216.13 93.80,216.59 95.75,217.04 96.10,216.25 96.37,216.01 96.70,215.87 97.10,215.82"/>
    </edge>
    <edge id=":11938903211_0" function="internal">
        <lane id=":11938903211_0_0" index="0" allow="pedestrian bicycle" speed="2.78" length="2.99" width="2.00" shape="215.45,240.73 215.65,239.87 215.72,239.25 215.85,238.66 216.21,237.86"/>
    </edge>
    <edge id=":11938903211_1" function="internal">
        <lane id=":11938903211_1_0" index="0" allow="pedestrian bicycle" speed="2.78" length="2.92" width="2.00" shape="215.45,240.73 216.15,240.18 216.71,240.09 217.10,240.49 217.35,241.35"/>
    </edge>
    <edge id=":11938903211_2" function="internal">
        <lane id=":11938903211_2_0" index="0" allow="pedestrian bicycle" speed="2.78" length="2.52" width="2.00" shape="217.91,238.92 217.62,239.60 217.54,240.10 217.50,240.62 217.35,241.35"/>
    </edge>
    <edge id=":11938903211_3" function="internal">
        <lane id=":11938903211_3_0" index="0" allow="pedestrian bicycle" speed="2.78" length="2.93" width="2.00" shape="217.91,238.92 217.08,239.29 216.53,239.24 216.23,238.76 216.21,237.86"/>
    </edge>
    <edge id=":11938903211_w0" function="walkingarea">
        <lane id=":11938903211_w0_0" index="0" allow="pedestrian" speed="2.78" length="3.32" width="4.00" shape="219.24,239.27 219.07,237.28 218.28,236.08 216.52,235.14 213.82,236.80 213.43,238.77 214.20,239.09 214.43,239.34 214.55,239.66 214.56,240.05 214.47,240.50 218.31,241.64 219.92,237.27 218.15,236.33"/>
    </edge>
    <edge id=":11938903220_0" function="internal">
        <lane id=":11938903220_0_0" index="0" allow="pedestrian delivery bicycle" speed="3.65" length="4.67" shape="204.25,324.00 204.96,325.25 204.96,326.15 204.24,326.68 202.81,326.86"/>
    </edge>
    <edge id=":11938903221_w0" function="walkingarea">
        <lane id=":11938903221_w0_0" index="0" allow="pedestrian" speed="2.78" length="0.20" width="2.00" shape="73.61,150.82 75.56,150.36 75.52,150.20 73.56,150.58"/>
    </edge>
    <edge id=":11942072985_0" function="internal">
        <lane id=":11942072985_0_0" index="0" disallow="pedestrian tram rail_urban rail rail_electric rail_fast ship container cable_car subway aircraft wheelchair scooter drone" speed="8.33" length="6.58" shape="696.38,274.79 689.91,273.56"/>
    </edge>
    <edge id=":11942072985_1" function="internal">
        <lane id=":11942072985_1_0" index="0" allow="bicycle" speed="6.95" length="1.83" width="2.00" shape="696.38,274.79 694.78,273.90"/>
    </edge>
    <edge id=":11942072985_7" function="internal">
        <lane id=":11942072985_7_0" index="0" allow="bicycle" speed="6.95" length="8.45" width="2.00" shape="694.78,273.90 693.80,272.10 693.43,269.37 693.67,265.73"/>
    </edge>
    <edge id=":11942072985_2" function="internal">
        <lane id=":11942072985_2_0" index="0" allow="bicycle" speed="5.58" length="6.31" width="2.00" shape="695.65,266.00 695.48,268.30 695.66,270.01 696.20,271.13 697.09,271.67"/>
    </edge>
    <edge id=":11942072985_3" function="internal">
        <lane id=":11942072985_3_0" index="0" allow="bicycle" speed="6.82" length="10.63" width="2.00" shape="695.65,266.00 694.87,269.59 693.66,272.04 692.01,273.37 689.91,273.56"/>
    </edge>
    <edge id=":11942072985_4" function="internal">
        <lane id=":11942072985_4_0" index="0" allow="pedestrian bicycle" speed="2.89" length="2.92" width="2.00" shape="695.65,266.00 695.06,266.68 694.53,266.86 694.06,266.54 693.67,265.73"/>
    </edge>
    <edge id=":11942072985_5" function="internal">
        <lane id=":11942072985_5_0" index="0" allow="bicycle" speed="5.52" length="6.32" width="2.00" shape="690.42,270.40 691.59,270.26 692.52,269.44 693.21,267.93 693.67,265.73"/>
    </edge>
    <edge id=":11942072985_6" function="internal">
        <lane id=":11942072985_6_0" index="0" disallow="pedestrian tram rail_urban rail rail_electric rail_fast ship container cable_car subway aircraft wheelchair scooter drone" speed="8.33" length="6.78" shape="690.42,270.40 697.09,271.67"/>
    </edge>
    <edge id=":11942072985_c0" function="crossing" crossingEdges="715835444#3 -715835444#3">
        <lane id=":11942072985_c0_0" index="0" allow="pedestrian" speed="2.78" length="6.40" width="4.00" shape="695.49,269.67 694.08,275.91" outlineShape="697.44,270.11 696.01,276.45 692.13,275.47 693.54,269.23 697.44,270.11"/>
    </edge>
    <edge id=":11942072985_w0" function="walkingarea">
        <lane id=":11942072985_w0_0" index="0" allow="pedestrian" speed="2.78" length="4.41" width="4.00" shape="689.66,275.14 689.34,277.11 695.59,278.30 696.03,276.35 692.13,275.47"/>
    </edge>
    <edge id=":11942072985_w1" function="walkingarea">
        <lane id=":11942072985_w1_0" index="0" allow="pedestrian" speed="2.78" length="4.18" width="4.00" shape="693.54,269.23 697.44,270.11 697.88,268.16 696.64,266.13 694.66,265.87 692.68,265.60 691.00,266.85 690.68,268.82"/>
    </edge>
    <edge id=":127515180_0" function="internal">
        <lane id=":127515180_0_0" index="0" allow="bicycle" speed="4.89" length="6.24" width="1.00" shape="237.00,137.14 237.13,134.83 236.86,133.20 236.17,132.28 235.07,132.05"/>
    </edge>
    <edge id=":127515180_1" function="internal">
        <lane id=":127515180_1_0" index="0" allow="bicycle" speed="10.29" length="20.32" width="1.00" shape="237.00,137.14 237.45,133.61 238.38,126.81 239.48,120.18 240.42,117.15"/>
    </edge>
    <edge id=":127515180_2" function="internal">
        <lane id=":127515180_2_0" index="0" allow="bicycle" speed="3.22" length="4.70" width="1.00" shape="237.00,137.14 237.83,135.95 238.64,135.57 239.44,135.99 240.21,137.21"/>
    </edge>
    <edge id=":127515180_3" function="internal">
        <lane id=":127515180_3_0" index="0" allow="bicycle" speed="5.91" length="2.41" width="1.50" shape="242.04,131.36 241.40,131.78 240.85,132.89 240.74,133.28"/>
    </edge>
    <edge id=":127515180_4" function="internal">
        <lane id=":127515180_4_0" index="0" allow="bicycle" speed="13.89" length="7.00" width="1.50" shape="242.04,131.36 235.07,132.05"/>
    </edge>
    <edge id=":127515180_5" function="internal">
        <lane id=":127515180_5_0" index="0" disallow="pedestrian bicycle tram rail_urban rail rail_electric rail_fast ship container cable_car subway aircraft wheelchair scooter drone" speed="7.02" length="2.37" shape="241.77,129.02 240.99,129.59 240.40,130.87"/>
    </edge>
    <edge id=":127515180_6" function="internal">
        <lane id=":127515180_6_0" index="0" disallow="pedestrian bicycle tram rail_urban rail rail_electric rail_fast ship container cable_car subway aircraft wheelchair scooter drone" speed="13.89" length="6.87" shape="241.77,129.02 234.86,129.71"/>
        <lane id=":127515180_6_1" index="1" disallow="pedestrian bicycle tram rail_urban rail rail_electric rail_fast ship container cable_car subway aircraft wheelchair scooter drone" speed="13.89" length="6.87" shape="241.41,125.84 234.57,126.52"/>
        <lane id=":127515180_6_2" index="2" allow="bus" speed="13.89" length="6.87" shape="241.05,122.66 234.29,123.33"/>
    </edge>
    <edge id=":127515180_11" function="internal">
        <lane id=":127515180_11_0" index="0" allow="bicycle" speed="5.91" length="3.98" width="1.50" shape="240.74,133.28 240.37,134.69 239.97,137.18"/>
    </edge>
    <edge id=":127515180_12" function="internal">
        <lane id=":127515180_12_0" index="0" disallow="pedestrian bicycle tram rail_urban rail rail_electric rail_fast ship container cable_car subway aircraft wheelchair scooter drone" speed="7.02" length="6.35" shape="240.40,130.87 240.29,131.13 239.67,133.62 239.12,137.07"/>
    </edge>
    <edge id=":127515180_9" function="internal">
        <lane id=":127515180_9_0" index="0" allow="bicycle" speed="13.89" length="6.69" width="1.50" shape="233.79,117.81 240.42,117.15"/>
        <lane id=":127515180_9_1" index="1" disallow="pedestrian bicycle tram rail_urban rail rail_electric rail_fast ship container cable_car subway aircraft wheelchair scooter drone" speed="13.89" length="6.69" shape="234.00,120.15 240.68,119.48"/>
    </edge>
    <edge id=":127515180_c0" function="crossing" crossingEdges="75392301#0 -75392301#0">
        <lane id=":127515180_c0_0" index="0" allow="pedestrian" speed="2.78" length="4.21" width="4.00" shape="240.96,135.29 236.75,135.09" outlineShape="240.87,137.29 236.66,137.09 236.62,135.72 236.60,134.62 236.44,133.78 236.15,133.19 235.96,133.05 241.33,133.31 241.09,134.36 240.91,135.52 240.79,136.56 240.87,137.29"/>
    </edge>
    <edge id=":127515180_c1" function="crossing" crossingEdges="-378479743#1 378479743#1">
        <lane id=":127515180_c1_0" index="0" allow="pedestrian" speed="2.78" length="15.80" width="4.00" shape="238.35,116.63 240.13,132.33" outlineShape="240.33,116.40 242.12,132.10 241.68,132.45 241.34,133.27 241.09,134.36 241.00,134.95 238.15,132.55 236.36,116.85 240.33,116.40 240.32,116.30"/>
    </edge>
    <edge id=":127515180_c2" function="crossing" crossingEdges="378479743#2 -378479743#2">
        <lane id=":127515180_c2_0" index="0" allow="pedestrian" speed="2.78" length="15.80" width="4.00" shape="237.13,132.62 235.72,116.88" outlineShape="235.14,132.80 233.73,117.06 237.71,116.70 240.33,116.40 240.00,113.42 233.46,114.07 233.73,117.06 237.71,116.70 239.12,132.44 236.60,134.62 236.44,133.78 236.15,133.19 235.71,132.87 235.14,132.80"/>
    </edge>
    <edge id=":127515180_w0" function="walkingarea">
        <lane id=":127515180_w0_0" index="0" allow="pedestrian" speed="2.78" length="2.58" width="4.00" shape="240.87,137.29 242.46,135.08 242.12,132.10 241.68,132.45 241.34,133.27 241.09,134.36 240.91,135.52 240.79,136.56"/>
    </edge>
    <edge id=":127515180_w1" function="walkingarea">
        <lane id=":127515180_w1_0" index="0" allow="pedestrian" speed="2.78" length="4.00" width="4.00" shape="236.36,116.85 240.33,116.40 240.00,113.42 233.46,114.07 233.73,117.06 237.71,116.70"/>
    </edge>
    <edge id=":127515180_w2" function="walkingarea">
        <lane id=":127515180_w2_0" index="0" allow="pedestrian" speed="2.78" length="2.23" width="4.00" shape="235.14,132.80 235.40,135.78 236.66,137.09 236.62,135.72 236.60,134.62 236.44,133.78 236.15,133.19 235.71,132.87"/>
    </edge>
    <edge id=":130027898_0" function="internal">
        <lane id=":130027898_0_0" index="0" allow="pedestrian bicycle" speed="2.78" length="2.92" width="2.00" shape="316.79,291.25 316.19,291.93 315.66,292.11 315.20,291.79 314.81,290.98"/>
    </edge>
    <edge id=":130027898_w0" function="walkingarea">
        <lane id=":130027898_w0_0" index="0" allow="pedestrian" speed="2.78" length="2.72" width="4.00" shape="317.78,291.39 313.82,290.84 313.92,291.98 314.12,292.38 314.32,292.77 314.45,293.25 314.47,293.92 316.46,294.11 316.82,293.07 317.10,292.74 317.38,292.42 317.62,292.00"/>
    </edge>
    <edge id=":130027900_0" function="internal">
        <lane id=":130027900_0_0" index="0" allow="pedestrian bicycle" speed="2.78" length="2.92" width="2.00" shape="310.31,318.42 310.60,319.27 310.50,319.82 310.00,320.07 309.10,320.01"/>
    </edge>
    <edge id=":130027900_w0" function="walkingarea">