<?xml version="1.0" encoding="UTF-8"?>

<!-- generated on 2024-10-26 08:29:45.405809 by randomTrips.py UNKNOWN
<configuration>
    <net-file value="/opt/homebrew/opt/sumo/share/sumo/tools/2024-10-08-17-29-51/241026/241026_A036_net.xml"/>
    <route-file value="241026_random_route_pedestrian.rou.xml"/>
    <pedestrians value="True"/>
    <prefix value="pedestrian"/>
    <verbose value="True"/>
    <insertion-density value="70.0"/>
    <random-depart value="True"/>
</configuration>
-->

<!-- generated on 2024-10-26 08:29:45 by Eclipse SUMO duarouter Version 1.20.0
<configuration xmlns:xsi="http://www.w3.org/2001/XMLSchema-instance" xsi:noNamespaceSchemaLocation="http://sumo.dlr.de/xsd/duarouterConfiguration.xsd">

    <input>
        <net-file value="/opt/homebrew/opt/sumo/share/sumo/tools/2024-10-08-17-29-51/241026/241026_A036_net.xml"/>
        <route-files value="trips.trips.xml"/>
    </input>

    <output>
        <output-file value="241026_random_route_pedestrian.rou.xml"/>
        <alternatives-output value="NUL"/>
    </output>

    <time>
        <begin value="0.0"/>
        <end value="3600.0"/>
    </time>

    <report>
        <verbose value="true"/>
        <ignore-errors value="true"/>
        <no-step-log value="true"/>
    </report>

</configuration>
-->

<routes xmlns:xsi="http://www.w3.org/2001/XMLSchema-instance" xsi:noNamespaceSchemaLocation="http://sumo.dlr.de/xsd/routes_file.xsd">
    <person id="pedestrian0" depart="1.96">
        <walk edges="-256102751#0 E1.13 700440138 700440139 -378479743#6 -378479743#5 -378479743#4 -378479743#3 -378479743#2 -378479743#1 -378479743#0 253230759#0 253230759#1 1244524930 255729797#1 E4 -378491236 -150041636#0 -150041636#1 150041661 957138676#0 -957138676#2 -494297578#1"/>
    </person>
    <person id="pedestrian1" depart="2.53">
        <walk edges="-984768176#1 -150032873 700236092#1 700236092#0 378479743#6 378479743#5 378479743#4 378479743#3 378479743#2 378479743#1 378479743#0 700440148 255729754#2 255729754#1 255729754#0 150041716#4 150041716#3 -29895519#1 -29895519#2 29895520#0 1185258339"/>
    </person>
    <person id="pedestrian2" depart="6.10">
        <walk edges="-148061769 255729754#0 255729754#1 255729754#2 700440148 378479743#0 378479743#1 378479743#2 378479743#3 378479743#4 378479743#5 378479743#6 700236092#0 700236092#1 -150032873 -984768176#1 -149518804#0 -149518804#2"/>
    </person>
    <person id="pedestrian4" depart="11.03">
        <walk edges="-585579893 -4144040#4 255729754#2 255729754#1 255729754#0 150041716#4 150041716#3 -150041716#2 150041716#1 -150041716#0 255797405#1 255797402#1 150041594#0 -150041624#0 -526519487 115485620#0"/>
    </person>
    <person id="pedestrian5" depart="14.60">
        <walk edges="150032770#0 -327864903#0 -327864903#1 -218848625#1 -1287285290#3 -24507771 13858854 -47492539 -13858853 4195610#2 484022097 -4144040#2 -4144040#1 4195580#0 4195580#1 4195580#2 715835444#1 715835444#2 715835444#3 715835444#4 715835444#5 23508224"/>
    </person>
    <person id="pedestrian7" depart="29.51">
        <walk edges="256105105#8 256102746#1 256102750#1 256102749 4213557 4213561#0 4213561#1 638694840#0 -638694840#1 689756683 -23248118 -23248109#0 -23248109#1 -378479743#3 -378479743#2 -378479743#1 -378479743#0 253230759#0 -23599727#0 -23599727#1"/>
    </person>
    <person id="pedestrian8" depart="31.62">
        <walk edges="-150041716#2 150041716#3 150041716#4 255729754#0 255729754#1 255729754#2 700440148 378479743#0 378479743#1 378479743#2 378479743#3 378479743#4 378479743#5 378479743#6 700236092#0 700236092#1 439271817#2 -E1"/>
    </person>
    <person id="pedestrian9" depart="33.17">
        <walk edges="984768176#1 -150032873 700236092#1 700236092#0 378479743#6 378479743#5 378479743#4 378479743#3 378479743#2 378479743#1 378479743#0 700440148 255729754#2 255729754#1 255729754#0 150041716#4 150041716#3 -29895519#1 -886547965#1 886404164#0 886404164#1 245221889"/>
    </person>
    <person id="pedestrian10" depart="33.68">
        <walk edges="-984768176#1 -150032873 700236092#1 700236092#0 378479743#6 378479743#5 378479743#4 378479743#3 378479743#2 -378479743#1 -378479743#0 253230759#0 253230759#1 -4209642 -28247400#0"/>
    </person>
    <person id="pedestrian11" depart="41.36">
        <walk edges="256105105#2 4213557 4213561#0 4213561#1 638694840#0 -638694840#1 689756683 -23248118 -23248109#0 -23248109#1 378479743#3 378479743#2 378479743#1 378479743#0 700440148 255729754#2 255729754#1 255729754#0 150041716#4 150041716#3 -29895519#1 -29895519#2 29895520#0 -1185258339 1185258336#2 1185258338#0"/>
    </person>
    <person id="pedestrian12" depart="50.68">
        <walk edges="-13755982"/>
    </person>
    <person id="pedestrian13" depart="56.55">
        <walk edges="359458208#2 -150041645#0 -150041699#1 -700440130#0 -700440130#1 -700440128 700440129 1290085526#0 150041594#0 255797402#1 255797405#1 -150041716#0 150041716#1 -150041716#2 150041716#3 150041716#4 255729754#0 255729754#1 255729754#2 700440148 378479743#0 378479743#1 378479743#2 378479743#3 378479743#4 378479743#5 378479743#6 700236092#0 700236092#1 439271817#2"/>
    </person>
    <person id="pedestrian14" depart="57.17">
        <walk edges="196656222#1 196656222#2 -700440130#0 -700440130#1 -700440128 881694397 -150041624#1 -150041624#0 494297577#1 494297577#0 519402125#0 -150041636#2 -150041636#1 -150041636#0 -378491236 E4 255729797#1 689912266 -624481020#4 -28247401 -28247400#2"/>
    </person>
    <person id="pedestrian15" depart="60.01">
        <walk edges="638694840#1 689756683 -23248118 -23248109#0 -23248109#1 -378479743#3 -378479743#2 -378479743#1 -378479743#0 253230759#0 253230759#1 -4209642 -28247397#0"/>
    </person>
    <person id="pedestrian16" depart="60.96">
        <walk edges="715835444#1 -715910744#1 715910744#0 150041716#4 150041716#3 -29895519#1 -29895519#2 -715802321"/>
    </person>
    <person id="pedestrian17" depart="70.52">
        <walk edges="1185258336#0 1185258336#2 -1185258339 29895520#0 -29895519#2 -29895519#1 150041716#3 150041716#4 255729754#0 255729754#1 255729754#2 700440148 378479743#0 378479743#1 378479743#2 378479743#3 -378479743#4 -378479743#5 -378479743#6 700440139 700440138 E1.13 257510647#1 257510648"/>
    </person>
    <person id="pedestrian18" depart="76.91">
        <walk edges="50507110 196656222#1 196656222#2 700440130#0 700440130#1 700440128 700440129 1290085526#0 150041594#0 255797402#1 255797405#1 -150041716#0 150041716#1 -150041716#2 150041716#3 150041716#4 255729754#0 255729754#1 255729754#2 700440148 378479743#0 378479743#1 378479743#2 378479743#3 -23248109#1 -23248109#0 -23248118 689756683 -638694840#1 638694840#0 4213561#1 4213561#0 4213557 256102749 256102750#1 256102750#0"/>
    </person>
    <person id="pedestrian19" depart="77.78">
        <walk edges="150041716#1 150041716#2"/>
    </person>
    <person id="pedestrian20" depart="79.37">
        <walk edges="150041624#3 150041624#2 -150041624#1 -150041624#0 150041594#0 255797402#1 255797405#1 -150041716#0 150041716#1 -150041716#2 150041716#3 150041716#4 255729754#0"/>
    </person>
    <person id="pedestrian21" depart="79.93">
        <walk edges="150041551#0 715835444#3 1153038902#4 -1185258336#0 -1185258337 -1185258336#3"/>
    </person>
    <person id="pedestrian23" depart="84.07">
        <walk edges="1287285290#1 150032863#4 150032863#3 150032863#2 149518802#0 149518793 365216933 378479743#4 378479743#3 378479743#2 378479743#1 378479743#0 700440148 255729754#2 255729754#1 255729754#0 715910744#0 694832101 694836606 694836603 -694836605"/>
    </person>
    <person id="pedestrian25" depart="87.01">
        <walk edges="28247397#1 28247397#0 -4209642 253230759#1 253230759#0 -378479743#0 -378479743#1 -378479743#2 -378479743#3 -23248109#1 -23248109#0 -23248118 689756683 -638694840#1 638694840#0 4213561#1 366601855 366601856 256102750#2"/>
    </person>
    <person id="pedestrian26" depart="94.80">
        <walk edges="-494297578#1 -957138676#2 881694399 182982119#0 255797401#1 459339932#0 -150041716#0 150041716#1 -150041716#2 150041716#3 29895517"/>
    </person>
    <person id="pedestrian27" depart="101.72">
        <walk edges="884145210#1 -359458208#2 -150041645#0 -150041699#1 -700440130#0 -700440130#1 -700440128 881694397 -150041624#1 -150041624#0 494297577#1 494297577#0 255797401#1"/>
    </person>
    <person id="pedestrian28" depart="102.30">
        <walk edges="-4195580#0 -4144040#1 -4144040#2 484022097 4195610#2 -13858853 -47492539 13858854 -24507771 -1287285290#3 -218848625#1 -327864903#1 -327864903#0 -150032770#0 -150032770#1 -150032770#2 -150032770#5 -150032770#6 255729814#1 150032812#1 -149518804#2"/>
    </person>
    <person id="pedestrian29" depart="105.44">
        <walk edges="150041565 700440130#0 700440130#1 700440128 4295817#0 4295817#1 4295817#3 -150041551#1 -23101679#0 -29895520#3 -1153038902#0 1153038902#2 1153038902#4 715835444#2 715835444#1 4195580#2 4195580#1 4195580#0 -4144040#1 -4144040#2 484022097 4195610#2 -13858853 -47492539 13858854 -24507771 -1287285290#3 218848625#1"/>
    </person>
    <person id="pedestrian30" depart="105.99">
        <walk edges="359458217#2 -150041645#0 -150041699#1 -700440130#0 -700440130#1 -700440128 700440129 1290085526#0 150041594#0 255797402#1 255797405#1 -150041716#0 150041716#1 -150041716#2 150041716#3 150041716#4 255729754#0 255729754#1 255729754#2 4144040#4"/>
    </person>
    <person id="pedestrian31" depart="111.81">
        <walk edges="1153038902#0 -29895520#2 -29895520#1 29895520#0 -29895519#2 -29895519#1 150041716#3 150041716#4 255729754#0 255729754#1 465884703#2"/>
    </person>
    <person id="pedestrian32" depart="115.78">
        <walk edges="-43206316 -150041624#3 150041624#2 -150041624#1 -150041624#0 150041594#0 255797402#1 255797405#1 -150041716#0 150041716#1 -150041716#2 150041716#3 150041716#4 255729754#0 255729754#1 255729754#2 700440148 378479743#0 378479743#1 378479743#2 378479743#3 378479743#4 378479743#5 378479743#6 700236092#0 700236092#1 -150032873 -984768176#1 255729814#0 255729814#1"/>
    </person>
    <person id="pedestrian33" depart="117.90">
        <walk edges="334960656 334960660 -23599727#1 -23599727#0 253230759#1 -1244524929 465884703#2 255729754#1 255729754#0 150041716#4 150041716#3 -150041716#2 150041716#1 -150041716#0 255797405#1 255797402#1 150041594#0 1290085526#0 700440129 700440128 700440130#1 700440130#0 196656222#2 196656222#1 -50507110 50507098#0 -359458208#0"/>
    </person>
    <person id="pedestrian34" depart="125.88">
        <walk edges="149518798 196656222#2 700440130#0 700440130#1 700440128 700440129 1290085526#0 150041594#0 255797402#1 255797405#1 -150041716#0 150041716#1 -150041716#2 150041716#3 150041716#4 255729754#0 255729754#1 255729754#2 700440148 378479743#0 378479743#1 378479743#2 378479743#3 378479743#4 365216933 149518793 149518802#0 150032863#2 1287285289 1287285290#2"/>
    </person>
    <person id="pedestrian35" depart="127.48">
        <walk edges="1244524930 253230759#1 253230759#0 -378479743#0 -378479743#1 -378479743#2 -378479743#3 -23248109#1 -23248109#0 -23248118 689756683 -638694840#1 638694840#0 4213561#1 366601855 -366601856"/>
    </person>
    <person id="pedestrian36" depart="127.77">
        <walk edges="150041689 43206316 -150041624#3 150041624#2 -150041624#1 -150041624#0 150041594#0 255797402#1 255797405#1 -150041716#0 150041716#1 -150041716#2 150041716#3 150041716#4 255729754#0 255729754#1 255729754#2 700440148 378479743#0 378479743#1 378479743#2 378479743#3 -23248109#1 -23248109#0 -23248118 689756683 -638694840#1 638694840#0 4213561#1 4213561#0 4213557 256102749 256102750#1 256102746#1 256105105#8"/>
    </person>
    <person id="pedestrian37" depart="127.95">
        <walk edges="150032863#4 150032863#3 150032863#2 149518802#0 149518793 365216933 378479743#4 378479743#3 378479743#2 378479743#1 378479743#0 700440148 255729754#2 255729754#1 255729754#0 150041716#4 150041716#3 -150041716#2 150041716#1 -150041716#0 255797405#1 255797402#1 150041594#0 1290085526#0 700440129 -700440128 -700440130#1 -700440130#0 -150041699#1 -150041645#0 -150041645#4 -359458213 53207954#0"/>
    </person>
    <person id="pedestrian38" depart="130.64">
        <walk edges="365216934 378479743#2 378479743#1 378479743#0 700440148 255729754#2 255729754#1 255729754#0 -378491236 -150041636#0 -150041636#1 150041661 35771743#1"/>
    </person>
    <person id="pedestrian39" depart="133.81">
        <walk edges="196656222#1 196656222#2 700440130#0 700440130#1 700440128 700440129 1290085526#0 150041594#0 255797402#1 255797405#1 -150041716#0 150041716#1 -150041716#2 150041716#3 150041716#4 255729754#0 255729754#1 465884703#2 -1244524929 253230759#1"/>
    </person>
    <person id="pedestrian40" depart="147.94">
        <walk edges="E1.13 700440138 700440139 -378479743#6 -378479743#5 -378479743#4 378479743#3 378479743#2 378479743#1 378479743#0 700440148 255729754#2 255729754#1 255729754#0 150041716#4 150041716#3 -150041716#2 150041716#1 -150041716#0 150041551#2"/>
    </person>
    <person id="pedestrian41" depart="151.05">
        <walk edges="1125742272 -984768176#1 255729814#0 255729814#1 -150032770#6 150032770#5 -77706449 77706449"/>
    </person>
    <person id="pedestrian42" depart="151.31">
        <walk edges="150032812#1 -149518804#0 -984768176#1 -150032873 700236092#1 700236092#0 378479743#6 -378479743#6 700440139 700440138 E1.13 257510647#1 -257510647#0 -559675981 256102746#0 256105105#9 -256102748 286646440 56447699#1 22938316#1"/>
    </person>
    <person id="pedestrian43" depart="154.44">
        <walk edges="23508142#0 -23508141#0 -715835444#1 -4195580#2 -4195580#1 -4195580#0 -4144040#1 -4144040#2 484022097 4195610#2 -13858853 -47492539 13858854 -24507771 -1287285290#3 -218848625#1 -327864903#1 -327864903#0 150032770#0 150032770#1 150032770#2 150032770#5 218649572 319910922 319910923#0 319910923#1 319910923#2 319910914 319910916"/>
    </person>
    <person id="pedestrian45" depart="156.22">
        <walk edges="439271815#1 395456769#1 378479753 -23248109#1 -378479743#3 -378479743#2 -378479743#1 -378479743#0 253230759#0 253230759#1 1244524930 255729797#1 E4 -378491236 -150041636#0 -150041636#1 150041661 957138676#0 -957138676#2 -494297578#1"/>
    </person>
    <person id="pedestrian46" depart="156.62">
        <walk edges="150041594#0 255797402#1 255797405#1 -150041716#0 150041716#1 -150041716#2 150041716#3 150041716#4 255729754#0 255729754#1 255729754#2 700440148 378479743#0 378479743#1 378479743#2 378479743#3 378479743#4 378479743#5 378479743#6 700236092#0 700236092#1 -150032873 -984768176#1 255729814#0 255729814#1 -150032770#6 150032770#5 -77706449 77706449"/>
    </person>
    <person id="pedestrian48" depart="163.13">
        <walk edges="715910744#1 715910744#0 -378491236 -150041636#0 -150041636#1 150041661 957138676#0 957138676#2"/>
    </person>
    <person id="pedestrian49" depart="163.79">
        <walk edges="4144040#2 4144040#3 4144040#4 700440148 -378479743#0 35098345"/>
    </person>
    <person id="pedestrian50" depart="164.16">
        <walk edges="319911562 319910923#0 319910922 218649572 -150032770#6 255729814#1 255729814#0 -984768176#1 -150032873 700236092#1 700236092#0 378479743#6 378479743#5 378479743#4 378479743#3 378479743#2 378479743#1 378479743#0 700440148 255729754#2 255729754#1 255729754#0 150041716#4 150041716#3 -150041716#2 150041716#1 -150041716#0 255797405#1 255797402#1 150041594#0 -150041624#0 -150041624#1 150041624#2"/>
    </person>
    <person id="pedestrian51" depart="164.99">
        <walk edges="150041565 700440130#0 700440130#1 700440128 700440129 1290085526#0 150041594#0 255797402#1 255797405#1 -150041716#0 150041716#1 -150041716#2 150041716#3 150041716#4 255729754#0 255729754#1 255729754#2 700440148 253230759#0"/>
    </person>
    <person id="pedestrian52" depart="168.11">
        <walk edges="715835444#3 1153038902#4 1153038902#2 -1153038902#0 -29895520#3 -23101679#0 150041551#1 -4295817#3 -4295817#1 -4295817#0 -700440128 -700440130#1 -700440130#0 -150041699#1 -150041645#0 359458217#0 -884145210#0 359458219"/>
    </person>
    <person id="pedestrian53" depart="171.06">
        <walk edges="-572523427 150032770#5 -150032770#6 255729814#1"/>
    </person>
    <person id="pedestrian54" depart="173.26">
        <walk edges="23508141#0 -715835444#1 -4195580#2 -4195580#1 640167405"/>
    </person>
    <person id="pedestrian55" depart="173.92">
        <walk edges="1185258336#2 -1185258338#0 -1153038902#0 -29895520#3 -23101679#0 150041551#1 -4295817#3 -750168167"/>
    </person>
    <person id="pedestrian56" depart="178.54">
        <walk edges="4144040#3 4144040#4 1244524929 4209642 -28247400#0 -28247400#1"/>
    </person>
    <person id="pedestrian58" depart="181.38">
        <walk edges="-150041636#0 -378491236 E4 255729797#1 1244524930 253230759#1 253230759#0 -378479743#0 -378479743#1 -378479743#2 -378479743#3 -378479743#4 -378479743#5 -378479743#6 700440139 700440138"/>
    </person>
    <person id="pedestrian59" depart="185.83">
        <walk edges="29895517 150041716#4 255729754#0 255729754#1 255729754#2 700440148 378479743#0 378479743#1 378479743#2 378479743#3 378479743#4 378479743#5"/>
    </person>
    <person id="pedestrian61" depart="186.05">
        <walk edges="-539841923#0 150032863#1 149518802#0 149518793 365216933 378479743#4 378479743#3 378479743#2 -378479743#1 -378479743#0 253230759#0 253230759#1"/>
    </person>
    <person id="pedestrian62" depart="188.89">
        <walk edges="-539841923#0 150032863#1 149518802#0 149518793 365216933 -378479743#4 -23248109#1 -23248109#0"/>
    </person>
    <person id="pedestrian63" depart="189.56">
        <walk edges="378479743#1 378479743#0 700440148 255729754#2 255729754#1 255729754#0 -378491236 -4305021#0"/>
    </person>
    <person id="pedestrian64" depart="192.74">
        <walk edges="-149518804#2 -149518804#0 -984768176#1 -150032873 700236092#1 700236092#0 378479743#6 378479743#5 378479743#4 378479743#3 378479743#2 378479743#1 378479743#0 700440148 255729754#2 255729754#1 255729754#0 715910744#0 694832101 694836606 694836603"/>
    </person>
    <person id="pedestrian65" depart="195.12">
        <walk edges="-4144040#4 255729754#2 465884703#2 -1244524929 -4209642"/>
    </person>
    <person id="pedestrian66" depart="200.72">
        <walk edges="-182982119#1 255797401#1 459339932#0 150041551#2 150041551#1 -23101679#0 -29895520#3 -1153038902#0 1153038902#2 1153038902#4 715835444#2 715835444#1 -715910744#1"/>
    </person>
    <person id="pedestrian67" depart="205.26">
        <walk edges="150032866 150032812#1 255729814#1 -150032770#6 218649572 319910922 319910923#0 319910923#1"/>
    </person>
    <person id="pedestrian68" depart="205.71">
        <walk edges="-26730977#2 -149518804#3 -149518804#2 -149518804#0 -984768176#1 -150032873 700236092#1 700236092#0 378479743#6 378479743#5 378479743#4 378479743#3 378479743#2 378479743#1 378479743#0 700440148 255729754#2 255729754#1 255729754#0 150041716#4 150041716#3 -150041716#2 150041716#1 -150041716#0 255797405#1 255797402#1 150041594#0 -150041624#0 -150041624#1 881694397"/>
    </person>
    <person id="pedestrian70" depart="207.38">
        <walk edges="286497563 700440130#1 700440128 700440129 1290085526#0 150041594#0 255797402#1 255797405#1 -150041716#0 150041716#1 -150041716#2 150041716#3 150041716#4 255729754#0 255729754#1 255729754#2 700440148 378479743#0 378479743#1 378479743#2 378479743#3 378479743#4 378479743#5 378479743#6 700236092#0 700236092#1 -150032873 -984768176#1 255729814#0 255729814#1 -150032770#6 150032770#5 572523427"/>
    </person>
    <person id="pedestrian71" depart="207.51">
        <walk edges="150041551#0 -150041551#1 4295817#3 4295817#1 4295817#0 700440128 -285295366 285295366"/>
    </person>
    <person id="pedestrian72" depart="210.63">
        <walk edges="378543235#1 847071794 378543238 4213561#1 366601855 366601856 256102750#3 -56015406#0 -56015406#1 56028463#1 257510647#1 E1.13 700440138 700440139 -378479743#6 378479743#6 700236092#0 700236092#1 -150032873 -984768176#1 255729814#0 255729814#1 -150032770#6 150032770#5 -572523427"/>
    </person>
    <person id="pedestrian74" depart="213.59">
        <walk edges="4144040#1 4195580#0 4195580#1 4195580#2 715835444#1 715835444#2 1153038902#4 1153038902#2 -1153038902#0 -29895520#3 -23101679#0 -150041551#1 4295817#3 4295817#1 4295817#0 700440128 700440130#1 286497563"/>
    </person>
    <person id="pedestrian75" depart="214.19">
        <walk edges="-4209642 253230759#1 253230759#0 -378479743#0 -378479743#1 378479743#2 378479743#3 378479743#4 365216933 149518793 149518802#0 150032863#2 150032863#3 319910910#0 377601585"/>
    </person>
    <person id="pedestrian77" depart="224.63">
        <walk edges="700440130#0 700440130#1 700440128 700440129 1290085526#0 150041594#0 255797402#1 255797405#1 -150041716#0 150041716#1 -150041716#2 150041716#3 150041716#4 255729754#0 255729754#1 255729754#2 700440148 378479743#0 378479743#1 378479743#2 378479743#3 378479743#4 365216933 149518793 149518802#0 150032863#2 150032863#3 150032863#4 1287285290#1"/>
    </person>
    <person id="pedestrian78" depart="229.42">
        <walk edges="494297577#1 494297577#0 255797401#1 459339932#0 150041551#2 150041551#1 -23101679#0 -29895520#3 -1153038902#0 1153038902#2 1153038902#4 715835444#3"/>
    </person>
    <person id="pedestrian79" depart="237.52">
        <walk edges="-1287285290#3 -24507771 13858854 -47492539 -13858853 4195610#2 484022097 4144040#3 4144040#4 255729754#2 255729754#1 255729754#0 150041716#4 150041716#3 -150041716#2 150041716#1 -150041716#0 459339932#0 255797401#1 494297577#0"/>
    </person>
    <person id="pedestrian80" depart="239.91">
        <walk edges="4213561#1 638694840#0 -638694840#1 689756683 -23248118 -23248109#0 -23248109#1 -378479743#3 -378479743#2 -378479743#1 -378479743#0 253230759#0 253230759#1 1244524930 255729797#1 E4 -378491236 -150041636#0 -150041636#1 150041661 -35771743#1"/>
    </person>
    <person id="pedestrian83" depart="245.47">
        <walk edges="-638694840#1 638694840#0 4213561#1 4213561#0 4213557 256105105#2"/>
    </person>
    <person id="pedestrian86" depart="248.67">
        <walk edges="218848625#1 -1287285290#3 -24507771 13858854 -47492539 -13858853 4195610#2 484022097 4144040#3 4144040#4 1244524929 4209642 -28247400#0 -28247400#1 -459339931 334960660 -334960656 624481020#2"/>
    </person>
    <person id="pedestrian87" depart="249.73">
        <walk edges="-256102751#0 E1.13 700440138 700440139 -378479743#6 -378479743#5 -378479743#4 378479743#3 378479743#2 378479743#1 378479743#0 700440148 255729754#2 255729754#1 255729754#0 150041716#4 150041716#3 -150041716#2 150041716#1 -150041716#0 255797405#1 255797402#1 150041594#0 1290085526#0 700440129 -700440128 -700440130#1 -700440130#0 150041699#2"/>
    </person>
    <person id="pedestrian88" depart="253.20">
        <walk edges="-539841923#1 150032863#1 149518802#0 149518802#1 150032842 528567529 -378479743#6 700440139 700440138 E1.13 257510647#1 56028463#1 -56015406#1 -56015406#0 256105105#4 439273272"/>
    </person>
    <person id="pedestrian91" depart="260.93">
        <walk edges="-1185258336#0 1185258336#2 -1185258339 29895520#0 -29895519#2 -29895519#1 150041716#3 150041716#4 255729754#0 749484712#1 -749484712#1"/>
    </person>
    <person id="pedestrian92" depart="262.51">
        <walk edges="-624481020#4 689912266 1244524930 253230759#1 253230759#0 -378479743#0 -378479743#1 378479743#2 378479743#3 378479743#4 378479743#5 378479743#6 700236092#0 700236092#1 -150032873 -984768176#1 255729814#0 255729814#1 -150032770#6 218649572 319910922 319910923#0 319910923#1 319910923#2 319910914"/>
    </person>
    <person id="pedestrian93" depart="263.01">
        <walk edges="-359458208#2 -150041645#0 -150041699#1 -700440130#0 -700440130#1 -700440128 700440129 1290085526#0 150041594#0 255797402#1 255797405#1 -150041716#0 150041716#1 -150041716#2 150041716#3 150041716#4 255729754#0 255729754#1 255729754#2 700440148 378479743#0 378479743#1 378479743#2 378479743#3 -378479743#4 -378479743#5 -378479743#6 700440139 700440138 E1.13 257510647#1 56028463#1 256105105#7"/>
    </person>
    <person id="pedestrian96" depart="269.56">
        <walk edges="1185258338#0 -1153038902#0 -29895520#3 -23101679#0 150041551#1 150041551#2 -150041716#0 -150041716#1"/>
    </person>
    <person id="pedestrian97" depart="269.63">
        <walk edges="957138676#0 881694399 182982119#0 255797401#1 459339932#0 150041551#2 150041551#1"/>
    </person>
    <person id="pedestrian98" depart="269.87">
        <walk edges="715835444#4 -150041551#0 -150041551#1 -150041551#3 255797405#1 255797402#1 150041594#0 -150041624#0 -526519487 -115485620#0"/>
    </person>
    <person id="pedestrian99" depart="271.88">
        <walk edges="1153038902#4 -1185258336#0 1185258336#2 -1185258339 29895520#0 -29895519#2 -29895519#1 150041716#3 150041716#4 255729754#0 255729754#1 255729754#2 700440148 378479743#0 378479743#1 378479743#2 378479743#3 378479743#4 378479743#5 378479743#6 700236092#0 700236092#1 -150032873 -984768176#1 -149518804#0 149518804#2"/>
    </person>
    <person id="pedestrian100" depart="275.00">
        <walk edges="-50507110 196656222#1 196656222#2 700440130#0 700440130#1 700440128 4295817#0 4295817#1 4295817#3 -150041551#1 -23101679#0 -29895520#3 -1153038902#0 1153038902#2 1153038902#4 715835444#2 715835444#1 -715910744#1"/>
    </person>
    <person id="pedestrian101" depart="276.28">
        <walk edges="255797405#0 255797405#1 -150041716#0 150041716#1 -150041716#2 150041716#3 150041716#4 255729754#0 255729754#1 255729754#2 700440148 378479743#0 378479743#1 378479743#2 378479743#3 378479743#4 378479743#5 378479743#6 700236092#0 700236092#1 -150032873 -984768176#1 255729814#0 255729814#1"/>
    </person>
    <person id="pedestrian102" depart="276.82">
        <walk edges="-494297577#0 -182982119#1 881694398 -957138676#0"/>
    </person>
    <person id="pedestrian104" depart="278.70">
        <walk edges="150032863#1 -539841923#0 -1287285290#3 -24507771 13858854 -47492539 -13858853 4195610#2 484022097 -4144040#2 -4144040#1 4195580#0 4195580#1 4195580#2 715835444#1 715835444#2 1153038902#4 1153038902#2 -1153038902#0 -29895520#3 -23101679#0 -150041551#1 4295817#3 4295817#1 4295817#0 700440128 -285295366"/>
    </person>
    <person id="pedestrian105" depart="280.49">
        <walk edges="319910933#1 -26730977#2 -149518804#3 -149518804#2 -149518804#0 -984768176#1 -150032873 700236092#1 700236092#0 378479743#6 378479743#5 378479743#4 378479743#3 378479743#2 378479743#1 378479743#0 700440148 255729754#2 255729754#1 255729754#0 150041716#4 150041716#3 -150041716#2 150041716#1 -150041716#0 255797405#1 255797402#1 150041594#0 1290085526#0 700440129 700440128 700440130#1"/>
    </person>
    <person id="pedestrian106" depart="280.53">
        <walk edges="624481020#1 -334960656 334960660 -459339931 -28247400#1 -28247400#0 4209642 1244524929 4144040#4 4144040#3 4144040#2 4144040#1"/>
    </person>
    <person id="pedestrian108" depart="284.45">
        <walk edges="715910744#1 715910744#0 255729754#0 255729754#1 255729754#2 700440148 378479743#0 378479743#1 378479743#2 378479743#3 -23248109#1 -23248109#0 -23248118 689756683 -987109589#1 -987109589#0"/>
    </person>
    <person id="pedestrian109" depart="285.45">
        <walk edges="-4144040#1 -4144040#2 484022097 4195610#2 -13858853 -47492539 13858854 -24507771 -1287285290#3 -218848625#1 -327864903#1 -327864903#0 150032770#0 150032770#1 150032770#2 -77706449 77706449"/>
    </person>
    <person id="pedestrian110" depart="290.52">
        <walk edges="150041551#2 150041551#1 -23101679#0 -29895520#3 -1153038902#0 1153038902#2 1153038902#4 715835444#2 715835444#1 4195580#2 4195580#1 4195580#0 -4144040#1 -4144040#2 484022097 4195610#2 -13858853 -47492539 13858854 -24507771 -1287285290#3 -218848625#1 -327864903#1 -327864903#0 150032770#0 150032770#1 150032770#2 150032770#5"/>
    </person>
    <person id="pedestrian111" depart="291.69">
        <walk edges="987109589#0 -987109589#1 689756683 -23248118 -23248109#0 -23248109#1 -378479743#4 -378479743#5 378479743#6 700236092#0 700236092#1 439271817#2 -E1"/>
    </person>
    <person id="pedestrian112" depart="292.28">
        <walk edges="334960660 -23599727#1 -23599727#0 253230759#1 -1244524929 465884703#2 255729754#1 255729754#0 150041716#4 150041716#3 -150041716#2 150041716#1 -150041716#0 255797405#1 255797402#1 150041594#0 -150041624#0 -150041624#1 150041624#2 -150041624#3 43206316 69990712"/>
    </person>
    <person id="pedestrian113" depart="292.99">
        <walk edges="378543238 847071794 378543235#1 439271815#0"/>
    </person>
    <person id="pedestrian115" depart="297.71">
        <walk edges="319910923#0 319910922 218649572 -150032770#6 255729814#1 255729814#0 -984768176#1 -150032873 700236092#1 700236092#0 378479743#6 -378479743#6 700440139 700440138 E1.13 257510647#1 56028463#1 56028463#0 256102750#1"/>
    </person>
    <person id="pedestrian116" depart="298.89">
        <walk edges="4213561#0 366601855 366601856 256102750#3 -56015406#0 -56015406#1 56028463#1 257510647#1 E1.13 700440138 700440139 -378479743#6 528567529 150032842 149518802#1 149518802#0 150032863#1 -539841923#0 -218848625#1 -218848625#0 218848626#0"/>
    </person>
    <person id="pedestrian118" depart="300.17">
        <walk edges="700236092#1 700236092#0 378479743#6 -378479743#5 -378479743#4 -23248109#1 -23248109#0 -23248118"/>
    </person>
    <person id="pedestrian120" depart="302.55">
        <walk edges="-365216934 378479743#3 -23248109#1 -23248109#0 23248118"/>
    </person>
    <person id="pedestrian121" depart="303.32">
        <walk edges="-29895519#1 150041716#3 150041716#4 255729754#0 255729754#1 255729754#2 700440148 378479743#0 378479743#1 378479743#2 378479743#3 378479743#4 365216933 149518793 149518802#0 150032863#1 539841923#1"/>
    </person>
    <person id="pedestrian122" depart="303.83">