<?xml version="1.0" encoding="UTF-8"?>

<!-- generated on 2024-10-26 08:39:04.240862 by randomTrips.py UNKNOWN
<configuration>
    <net-file value="/opt/homebrew/opt/sumo/share/sumo/tools/2024-10-08-17-29-51/241026/241026_A036_net.xml"/>
    <route-file value="241026_random_route_bicycles.rou.xml"/>
    <prefix value="bike"/>
    <vehicle-class value="bicycle"/>
    <verbose value="True"/>
    <insertion-density value="70.0"/>
    <random-depart value="True"/>
</configuration>
-->

<!-- generated on 2024-10-26 08:39:04 by Eclipse SUMO duarouter Version 1.20.0
<configuration xmlns:xsi="http://www.w3.org/2001/XMLSchema-instance" xsi:noNamespaceSchemaLocation="http://sumo.dlr.de/xsd/duarouterConfiguration.xsd">

    <input>
        <net-file value="/opt/homebrew/opt/sumo/share/sumo/tools/2024-10-08-17-29-51/241026/241026_A036_net.xml"/>
        <route-files value="trips.trips.xml"/>
    </input>

    <output>
        <output-file value="241026_random_route_bicycles.rou.xml"/>
        <alternatives-output value="NUL"/>
    </output>

    <time>
        <begin value="0.0"/>
        <end value="3600.0"/>
    </time>

    <report>
        <verbose value="true"/>
        <ignore-errors value="true"/>
        <no-step-log value="true"/>
    </report>

</configuration>
-->

<routes xmlns:xsi="http://www.w3.org/2001/XMLSchema-instance" xsi:noNamespaceSchemaLocation="http://sumo.dlr.de/xsd/routes_file.xsd">
    <vType id="bike_bicycle" vClass="bicycle"/>
    <vehicle id="bike0" type="bike_bicycle" depart="1.98">
        <route edges="-378479743#6 -378479743#5 -378479743#4 -378479743#3 -378479743#2 -378479743#1 -35098345 35098345 378479743#1 75392301#0 75392301#1 23015831 -539841923#1 -539841923#0 -218848625#1 -327864903#1 -327864903#0 150032770#0"/>
    </vehicle>
    <vehicle id="bike1" type="bike_bicycle" depart="2.89">
        <route edges="-23248109#1 23248109#1 -378479743#3 -378479743#2 -378479743#1 -378479743#0 700440131 506015829#1 E0 E2 378479740#1 -700440136 -56163443#3 -150041594#1 150041624#0 -150041624#0 150041594#0"/>
    </vehicle>
    <vehicle id="bike2" type="bike_bicycle" depart="10.53">
        <route edges="150032770#2 -572523427 572523427 -150032770#2 -150032770#1 -150032770#0 327864903#0 327864903#1 218848625#1 539841923#0 539841923#1 -23015831 4195610#0 4195610#2 484022097 -4144040#2 -4144040#1 4195580#0 4195580#1 4195580#2 715835444#1 715835444#2 715835444#3 715835444#4 715835444#5"/>
    </vehicle>
    <vehicle id="bike3" type="bike_bicycle" depart="14.63">
        <route edges="-150032770#5 -572523427 572523427 150032770#5 150032770#6 103958941#0 103958941#2"/>
    </vehicle>
    <vehicle id="bike4" type="bike_bicycle" depart="29.96">
        <route edges="150041565 700440130#0 700440130#1 700440128 4295817#0 -23508224 -715835444#5 750168166#0 -750168166#0 715835444#5"/>
    </vehicle>
    <vehicle id="bike5" type="bike_bicycle" depart="33.36">
        <route edges="700236093 44973978 984768175 1287285290#0 1287285290#1 1287285290#2 539841923#0 539841923#1 -23015831"/>
    </vehicle>
    <vehicle id="bike6" type="bike_bicycle" depart="41.13">
        <route edges="4195580#2 715835444#1 -23508141#0 23508142#0 23508142#1 -23508142#1 -23508142#0 23508141#0"/>
    </vehicle>
    <vehicle id="bike7" type="bike_bicycle" depart="50.13">
        <route edges="881694399 -881694399"/>
    </vehicle>
    <vehicle id="bike8" type="bike_bicycle" depart="56.25">
        <route edges="150032770#0 150032770#1 150032770#2 -572523427 572523427 -150032770#2 -150032770#1 -150032770#0 327864903#0 327864903#1 218848625#1 539841923#0 539841923#1 -23015831 4195610#0 4195610#2 484022097 4144040#3 -585579893 585579893 -4144040#3"/>
    </vehicle>
    <vehicle id="bike9" type="bike_bicycle" depart="57.68">
        <route edges="-378479743#0 253230759#0 253230759#1 684761787#0 700440148 378479743#0 378479743#1 378479743#2 378479743#3 378479743#4 378479743#5 378479743#6 700236092#0 700236092#1"/>
    </vehicle>
    <vehicle id="bike10" type="bike_bicycle" depart="60.27">
        <route edges="150041579#0 359458217#2 38115188 150041593 196656222#0 196656222#1 196656222#2 700440130#0 700440130#1 700440128 4295817#0 -23508224 -715835444#5 -715835444#4 -715835444#3 -715835444#2 -715835444#1 60263960 116556688 43135644#0 715913363#2 1290085525#0 1290085525#1 700440148 378479743#0 378479743#1 378479743#2 378479743#3 378479743#4 378479743#5 378479743#6 700236092#0 700236092#1 700236093 44973978 506013711#1 4019053#2"/>
    </vehicle>
    <vehicle id="bike11" type="bike_bicycle" depart="70.12">
        <route edges="4019053#2 -150032770#6 -150032770#5 -150032770#2 -150032770#1 -150032770#0 327864903#0 327864903#1 218848625#1 539841923#0 539841923#1 -23015831 -75392301#1 -75392301#0 -378479743#1 -378479743#0 253230759#0 253230759#1 684761787#0 700440148 378479743#0"/>
    </vehicle>
    <vehicle id="bike13" type="bike_bicycle" depart="79.86">
        <route edges="-624481020#3 -334960656 334960656 624481020#2 624481020#4 689912267#0 214812786 378479740#1 -700440136 -56163443#3 -150041551#3 -4295817#3 -4295817#1 -23508224"/>
    </vehicle>
    <vehicle id="bike15" type="bike_bicycle" depart="84.12">
        <route edges="506015829#1 E0 E2 116556686#1 -60263960 715835444#1 -715835444#1 -4195580#2"/>
    </vehicle>
    <vehicle id="bike16" type="bike_bicycle" depart="86.52">
        <route edges="-484022097 484022097 4144040#3 4144040#4 506015829#1 E0 E2 378479740#1 -700440136 -56163443#3 -150041594#1 150041624#0 150041624#1 150041624#2 -150041699#2 700440130#0"/>
    </vehicle>
    <vehicle id="bike17" type="bike_bicycle" depart="101.19">
        <route edges="-881694399 -182982119#1 56163443#1 700440137 700440134 214812788#2 73372559 -689912267#0 -624481020#4 -28247401 -28247397#1 -28247397#0 -4209642 -1244524929 700440148 378479743#0 378479743#1 378479743#2 378479743#3 378479743#4 -365216932 365216933 -378479743#4 -378479743#3"/>
    </vehicle>
    <vehicle id="bike18" type="bike_bicycle" depart="102.38">
        <route edges="700440139 -378479743#6 -378479743#5 -378479743#4 -23248109#1 23248109#1 378479743#4 378479743#5 378479743#6 -1265069358#1"/>
    </vehicle>
    <vehicle id="bike19" type="bike_bicycle" depart="105.11">
        <route edges="700440128 4295817#0 -23508224 -715835444#5 -715835444#4 -715835444#3 -715835444#2 -715835444#1 60263960 116556688 43135644#0 715913363#2 1290085525#0 1290085525#1 700440148 378479743#0 378479743#1 378479743#2 365216934 -365216934 -378479743#2"/>
    </vehicle>
    <vehicle id="bike20" type="bike_bicycle" depart="111.62">
        <route edges="-378479743#2 -378479743#1 -378479743#0 700440131 506015829#1 E0 E2 378479740#1 -700440136 -56163443#3"/>
    </vehicle>
    <vehicle id="bike21" type="bike_bicycle" depart="117.82">
        <route edges="-4144040#4 -585579893 585579893 4144040#4 700440148 378479743#0 378479743#1 378479743#2 378479743#3 378479743#4 378479743#5 378479743#6 700236092#0 700236092#1 700236093 44973978 506013711#1 4019053#2"/>
    </vehicle>
    <vehicle id="bike22" type="bike_bicycle" depart="127.41">
        <route edges="-150032770#2 -150032770#1 -150032770#0 327864903#0 327864903#1 218848625#1 539841923#0 539841923#1 -23015831 -75392301#1 -75392301#0 -378479743#1 -378479743#0 700440131 506015829#1 E0 E2 378479740#1 -700440136 -56163443#3 -150041594#1 -1290085526#1"/>
    </vehicle>
    <vehicle id="bike23" type="bike_bicycle" depart="130.65">
        <route edges="56163443#1 29895519#1 886547965#1 -886547965#1 29895519#2 715802321 -70205228#1 -70205228#0 -23508141#1 -715835444#1 -51873805"/>
    </vehicle>
    <vehicle id="bike24" type="bike_bicycle" depart="133.15">
        <route edges="-715835444#5 -715835444#4 -715835444#3 -715835444#2 -715835444#1 -4195580#2 -4195580#1 -4195580#0 4144040#1 4144040#2 -4144040#2 -4144040#1"/>
    </vehicle>
    <vehicle id="bike25" type="bike_bicycle" depart="147.88">
        <route edges="-150041551#3 -150041551#1 -150041551#0 -715835444#3 -715835444#2 -715835444#1 60263960 116556688 43135644#0 715913363#2 1290085525#0 1290085525#1 700440148 378479743#0 378479743#1 378479743#2 378479743#3 378479743#4 378479743#5 378479743#6 -1265069358#1 -256102751#0 257510647#1 254075881#1 449551311"/>
    </vehicle>
    <vehicle id="bike26" type="bike_bicycle" depart="151.80">
        <route edges="23248109#1 378479743#4 378479743#5 378479743#6 700236092#0 700236092#1 700236093 44973978"/>
    </vehicle>
    <vehicle id="bike28" type="bike_bicycle" depart="162.89">
        <route edges="23015831 -539841923#1 539841923#1 -23015831 -75392301#1 -75392301#0 378479743#2 378479743#3 378479743#4 -365216932 365216933 -378479743#4 -23248109#1"/>
    </vehicle>
    <vehicle id="bike29" type="bike_bicycle" depart="163.93">
        <route edges="214812786 116556686#1 -60263960 715835444#1 715835444#2 715835444#3 715835444#4"/>
    </vehicle>
    <vehicle id="bike31" type="bike_bicycle" depart="164.11">
        <route edges="700440130#0 700440130#1 700440128 700440129 1290085526#0 150041594#0 56163443#1 700440137 700440134 214812788#2"/>
    </vehicle>
    <vehicle id="bike32" type="bike_bicycle" depart="164.90">
        <route edges="150041579#2 150041578 150041580 149518769#1 38115188 150041593 196656222#0 196656222#1 196656222#2 700440130#0 700440130#1 700440128 700440129 1290085526#0 150041594#0 56163443#1 700440137 700440134 214812788#2 73372559"/>
    </vehicle>
    <vehicle id="bike33" type="bike_bicycle" depart="178.51">
        <route edges="-150041594#1 -1290085526#1 -700440129 -700440128 -700440130#1 -700440130#0 -196656222#2 -196656222#1 -196656222#0 -53207957 150041579#0 150041579#2 150041578 150041580"/>
    </vehicle>
    <vehicle id="bike34" type="bike_bicycle" depart="181.99">
        <route edges="150032770#1 150032770#2 -572523427 572523427 -150032770#2 -150032770#1 -150032770#0 327864903#0 327864903#1 218848625#1 539841923#0 539841923#1 -23015831 4195610#0 4195610#2 484022097 4144040#3 4144040#4"/>
    </vehicle>
    <vehicle id="bike35" type="bike_bicycle" depart="185.99">
        <route edges="196656222#1 196656222#2 700440130#0 700440130#1 700440128 4295817#0 -23508224 -715835444#5 -715835444#4 -715835444#3 -715835444#2 -715835444#1 60263960 116556688 43135644#0 715913363#2 1290085525#0 1290085525#1 700440148"/>
    </vehicle>
    <vehicle id="bike36" type="bike_bicycle" depart="186.26">
        <route edges="-196656222#1 -196656222#0"/>
    </vehicle>
    <vehicle id="bike37" type="bike_bicycle" depart="188.13">
        <route edges="378479743#6 -1265069358#1 -256102751#0 257510647#1 1265069358#1 -378479743#6 -378479743#5 -378479743#4 -378479743#3 -378479743#2 -378479743#1 -378479743#0 700440131 506015829#1 E0 E2 378479740#1 -700440136 -56163443#3 -150041594#1 150041624#0 150041624#1 150041624#2 -150041699#2 -150041565"/>
    </vehicle>
    <vehicle id="bike39" type="bike_bicycle" depart="192.27">
        <route edges="23508224 4295817#1 4295817#3 150041551#2 56163443#1 150041716#3 -29895517 -70205228#2"/>
    </vehicle>
    <vehicle id="bike40" type="bike_bicycle" depart="200.23">
        <route edges="E3 59591195#1 59591195#2 73372559 -689912267#0 -624481020#4 -28247401 -28247397#1 -28247397#0 -4209642 -1244524929 700440148 378479743#0 378479743#1 75392301#0 75392301#1 23015831"/>
    </vehicle>
    <vehicle id="bike41" type="bike_bicycle" depart="205.06">
        <route edges="150041579#0 359458217#2 38115188 150041593 196656222#0 196656222#1 196656222#2 700440130#0 700440130#1 700440128 4295817#0 -23508224 -715835444#5 -715835444#4 -715835444#3 -715835444#2 -715835444#1 60263960 116556688 43135644#0 715913363#2 1290085525#0 1290085525#1 700440148 378479743#0 378479743#1 378479743#2"/>
    </vehicle>
    <vehicle id="bike42" type="bike_bicycle" depart="205.08">
        <route edges="-23248109#1 23248109#1 -378479743#3 -378479743#2 -378479743#1 -378479743#0 253230759#0 253230759#1 684761787#0 -4144040#4 -4144040#3 -4144040#2 -4144040#1 4195580#0 4195580#1 4195580#2"/>
    </vehicle>
    <vehicle id="bike44" type="bike_bicycle" depart="207.43">
        <route edges="51873805 -715910744#1 715910744#1 715835444#1 715835444#2 715835444#3 150041551#0 150041551#1 -4295817#3 -4295817#1 4295817#1"/>
    </vehicle>
    <vehicle id="bike45" type="bike_bicycle" depart="210.59">
        <route edges="-484022097 484022097 -4144040#2 -4144040#1 4195580#0 4195580#1 4195580#2 715835444#1 715835444#2 715835444#3 150041551#0 150041551#1"/>
    </vehicle>
    <vehicle id="bike46" type="bike_bicycle" depart="229.70">
        <route edges="-60263960 715835444#1 715835444#2 -1153038902#4 1153038902#4 -715835444#2"/>
    </vehicle>
    <vehicle id="bike47" type="bike_bicycle" depart="237.65">
        <route edges="150041579#0 359458217#2 38115188 150041593 196656222#0 196656222#1 196656222#2 700440130#0 700440130#1 700440128 4295817#0 -23508224 -715835444#5 -715835444#4 -715835444#3 -715835444#2 -715835444#1 -4195580#2 -4195580#1 -4195580#0 4144040#1 4144040#2 -484022097 -4195610#2 -4195610#0 23015831 -539841923#1 -539841923#0 -218848625#1 -327864903#1 -327864903#0 150032770#0"/>
    </vehicle>
    <vehicle id="bike48" type="bike_bicycle" depart="239.17">
        <route edges="-23248109#1 23248109#1 378479743#4 378479743#5 378479743#6 700236092#0 700236092#1 700236093 44973978 506013711#1 4019053#2 -150032770#6 -150032770#5 -150032770#2 -150032770#1 -806364424 806364424 150032770#1 150032770#2"/>
    </vehicle>
    <vehicle id="bike49" type="bike_bicycle" depart="240.51">
        <route edges="4144040#3 4144040#4 700440148 378479743#0 378479743#1 378479743#2 378479743#3 378479743#4 378479743#5 378479743#6 700236092#0 700236092#1 700236093 44973978 506013711#1 149518804#2 149518804#3 103958941#2"/>
    </vehicle>
    <vehicle id="bike50" type="bike_bicycle" depart="241.56">
        <route edges="-378479743#6 -378479743#5 -378479743#4 -378479743#3 -378479743#2 -378479743#1 -378479743#0 700440131 506015829#1 E0 E2 378479740#1 -700440136 29895519#1 886547965#1 -886547965#1 29895519#2 715802321 70205228#2"/>
    </vehicle>
    <vehicle id="bike51" type="bike_bicycle" depart="246.25">
        <route edges="-196656222#0 13755982 -150041689 -43206316 -150041624#3 -150041624#2 -150041624#1 -150041624#0 150041594#0 56163443#1 700440137 700440134 214812788#2 73372559 -689912267#0 -624481020#4 -28247401 28247401 624481020#4"/>
    </vehicle>
    <vehicle id="bike52" type="bike_bicycle" depart="248.57">
        <route edges="-23248109#0 23248109#0 23248109#1 -378479743#3 -378479743#2 -378479743#1 -35098345 35098345 378479743#1 75392301#0 75392301#1 23015831 -539841923#1 539841923#1 -23015831"/>
    </vehicle>
    <vehicle id="bike53" type="bike_bicycle" depart="249.14">
        <route edges="484022097 -4144040#2 -4144040#1 4195580#0 4195580#1 4195580#2 60263960"/>
    </vehicle>
    <vehicle id="bike54" type="bike_bicycle" depart="258.44">
        <route edges="254075881#1 449551311 44973978 506013711#1 35574708#1"/>
    </vehicle>
    <vehicle id="bike56" type="bike_bicycle" depart="262.23">
        <route edges="-378479743#1 -378479743#0 700440131 506015829#1 E0 E2 378479740#1 -700440136 -56163443#3 -150041551#3 -4295817#3 -4295817#1 -23508224 -715835444#5"/>
    </vehicle>
    <vehicle id="bike57" type="bike_bicycle" depart="263.80">
        <route edges="4144040#3 -585579893 585579893 -4144040#3 -484022097 484022097"/>
    </vehicle>
    <vehicle id="bike58" type="bike_bicycle" depart="267.41">
        <route edges="700440130#0 700440130#1 700440128 4295817#0 4295817#1"/>
    </vehicle>
    <vehicle id="bike59" type="bike_bicycle" depart="272.00">
        <route edges="75392301#0 285188051#0 -285188051#0 -75392301#0 -378479743#1 -35098345 35098345 378479743#1"/>
    </vehicle>
    <vehicle id="bike60" type="bike_bicycle" depart="276.52">
        <route edges="116556688 43135644#0 715913363#2 1290085525#0 1290085525#1 700440148 378479743#0 378479743#1 378479743#2 378479743#3 378479743#4 378479743#5 378479743#6 -1265069358#1 -256102751#0 257510647#1 254075881#1"/>
    </vehicle>
    <vehicle id="bike62" type="bike_bicycle" depart="280.03">
        <route edges="-56163443#3 56163443#1 700440137 700440134 214812788#2 73372559 -689912267#0 -624481020#4 -28247401 -28247397#1 -28247397#0 -4209642 -1244524929 700440148 378479743#0 378479743#1 378479743#2 378479743#3 378479743#4 -365216932 365216933 -378479743#4 -23248109#1"/>
    </vehicle>
    <vehicle id="bike63" type="bike_bicycle" depart="280.57">
        <route edges="700236092#1 700236093 44973978 506013711#1 149518804#2 149518804#3 797259708#1 103958941#0"/>
    </vehicle>
    <vehicle id="bike65" type="bike_bicycle" depart="284.18">
        <route edges="60263960 116556688 43135644#0 715913363#2 1290085525#0 1290085525#1 700440148 378479743#0 378479743#1 378479743#2 378479743#3 378479743#4 378479743#5 378479743#6 700236092#0 700236092#1"/>
    </vehicle>
    <vehicle id="bike66" type="bike_bicycle" depart="290.54">
        <route edges="75392301#1 -75392301#1 -75392301#0 -378479743#1 -378479743#0 253230759#0 23599727#0 23599727#1 -465884704 624481020#1"/>
    </vehicle>
    <vehicle id="bike68" type="bike_bicycle" depart="292.30">
        <route edges="-150032770#2 -150032770#1 -150032770#0 327864903#0 327864903#1 218848625#1 539841923#0 539841923#1 -23015831 4195610#0 4195610#2 484022097 -4144040#2 -4144040#1 4195580#0 4195580#1 4195580#2 715835444#1"/>
    </vehicle>
    <vehicle id="bike69" type="bike_bicycle" depart="292.96">
        <route edges="624481020#4 689912267#0 214812786 715913363#2 1290085525#0 1290085525#1 -684761787#0 4209642 28247400#0 28247400#1 -459339931 -465884704 624481020#1 -334960656 334960656 -624481020#1"/>
    </vehicle>
    <vehicle id="bike70" type="bike_bicycle" depart="297.50">
        <route edges="-4195580#0 4195580#0 4195580#1 4195580#2"/>
    </vehicle>
    <vehicle id="bike71" type="bike_bicycle" depart="298.82">
        <route edges="-715835444#2"/>
    </vehicle>
    <vehicle id="bike72" type="bike_bicycle" depart="300.57">
        <route edges="-1290085526#1 -700440129 -700440128 -700440130#1 -700440130#0 150041576#1 -150041576#1 700440130#0"/>
    </vehicle>
    <vehicle id="bike75" type="bike_bicycle" depart="308.33">
        <route edges="-150032770#5 -572523427 572523427 150032770#5 150032770#6 103958941#0 -149518804#3 -149518804#2 -149518804#0 -984768176#1 -150032873 700236093 44973978"/>
    </vehicle>
    <vehicle id="bike76" type="bike_bicycle" depart="322.64">
        <route edges="-484022097 -4195610#2 -4195610#0 23015831 -539841923#1 -539841923#0 -218848625#1 -327864903#1 -327864903#0 150032770#0 150032770#1"/>
    </vehicle>
    <vehicle id="bike77" type="bike_bicycle" depart="323.11">
        <route edges="103958941#2"/>
    </vehicle>
    <vehicle id="bike79" type="bike_bicycle" depart="329.31">
        <route edges="378479740#1 -700440136 -56163443#3 -150041594#1 -1290085526#1 -700440129 -700440128 -700440130#1 -700440130#0 -196656222#2 -196656222#1"/>
    </vehicle>
    <vehicle id="bike80" type="bike_bicycle" depart="332.03">
        <route edges="-150041551#3 -150041551#1 -150041551#0 -715835444#3 -715835444#2 -715835444#1 60263960 116556688 43135644#0 715913363#2 1290085525#0 1290085525#1 700440148 378479743#0 378479743#1 378479743#2 378479743#3 378479743#4 378479743#5 378479743#6 -1265069358#1 -256102751#0 257510647#1 1265069358#1 -378479743#6 -378479743#5"/>
    </vehicle>
    <vehicle id="bike81" type="bike_bicycle" depart="335.41">
        <route edges="38115188 150041593 196656222#0 196656222#1 196656222#2 700440130#0 700440130#1 700440128 4295817#0 -23508224 -715835444#5 -715835444#4 -715835444#3 -715835444#2 -715835444#1 -4195580#2 -4195580#1 -4195580#0 4144040#1 4144040#2"/>
    </vehicle>
    <vehicle id="bike82" type="bike_bicycle" depart="335.64">
        <route edges="-700440130#0 150041699#2 -150041624#2 -150041624#1 -150041624#0 150041594#0 56163443#1 700440137 700440134 214812788#2 73372559 -689912267#0 -624481020#4 -28247401 -28247397#1 -28247397#0 -4209642 -1244524929 700440148 378479743#0 378479743#1 378479743#2 378479743#3 378479743#4 378479743#5 378479743#6 700236092#0 700236092#1 700236093 44973978 506013711#1 4019053#2"/>
    </vehicle>
    <vehicle id="bike83" type="bike_bicycle" depart="347.11">
        <route edges="196656222#0 196656222#1 196656222#2 700440130#0 700440130#1 700440128 4295817#0 -23508224 -715835444#5 -715835444#4 150041551#0"/>
    </vehicle>
    <vehicle id="bike85" type="bike_bicycle" depart="372.77">
        <route edges="-23508224 -715835444#5 -715835444#4 -715835444#3 -715835444#2 -715835444#1 -4195580#2 -4195580#1 -4195580#0 4144040#1 4144040#2 -484022097 -4195610#2 -4195610#0 23015831 -539841923#1 -539841923#0 -218848625#1 -327864903#1 -327864903#0 150032770#0 150032770#1 150032770#2"/>
    </vehicle>
    <vehicle id="bike86" type="bike_bicycle" depart="378.86">
        <route edges="-700440136 29895519#1 886547965#1 -886547965#1 29895519#2 715802321 -70205228#1 -70205228#0 -23508141#1 -715835444#1 -4195580#2 -4195580#1 -4195580#0 4144040#1 4144040#2 4144040#3"/>
    </vehicle>
    <vehicle id="bike87" type="bike_bicycle" depart="379.11">
        <route edges="196656222#0 196656222#1 196656222#2 700440130#0 700440130#1 700440128 4295817#0 -23508224 -715835444#5 -715835444#4 -715835444#3 -715835444#2 -715835444#1 -4195580#2 -4195580#1 -4195580#0 4144040#1"/>
    </vehicle>
    <vehicle id="bike88" type="bike_bicycle" depart="383.48">
        <route edges="-150041551#1 -150041551#0 -715835444#3 -715835444#2 -715835444#1 60263960 116556688 43135644#0 715913363#2 1290085525#0"/>
    </vehicle>
    <vehicle id="bike89" type="bike_bicycle" depart="396.67">
        <route edges="378479743#4 378479743#5 378479743#6 -1265069358#1 -1265069360#0"/>
    </vehicle>
    <vehicle id="bike90" type="bike_bicycle" depart="397.48">
        <route edges="-715835444#1 -4195580#2"/>
    </vehicle>
    <vehicle id="bike91" type="bike_bicycle" depart="397.81">
        <route edges="-378479743#3 -378479743#2 -378479743#1 -378479743#0 700440131 506015829#1 E0 E2 116556686#1 -60263960"/>
    </vehicle>
    <vehicle id="bike92" type="bike_bicycle" depart="408.63">
        <route edges="-881694399 -182982119#1 56163443#1 700440137 700440134 214812788#2 73372559 -689912267#0 -624481020#4 -28247401 -28247397#1 -28247397#0 -4209642 -1244524929 700440148 378479743#0 378479743#1 378479743#2 378479743#3 378479743#4 378479743#5 378479743#6 -1265069358#1 -1265069360#0"/>
    </vehicle>
    <vehicle id="bike93" type="bike_bicycle" depart="411.87">
        <route edges="492925920#0 492925920#1 395456768 395456769#0 395456769#1 24509268 700440138 700440139 -378479743#6 -378479743#5 -378479743#4 -378479743#3 -378479743#2 -378479743#1 -378479743#0 253230759#0 253230759#1 684761787#0 -4144040#4 -4144040#3 -4144040#2 -4144040#1"/>
    </vehicle>
    <vehicle id="bike94" type="bike_bicycle" depart="411.93">
        <route edges="1290085525#1 -4144040#4 -4144040#3 -4144040#2 -4144040#1 4195580#0 4195580#1 4195580#2"/>
    </vehicle>
    <vehicle id="bike95" type="bike_bicycle" depart="413.11">
        <route edges="214812786 715913363#2 1290085525#0 1290085525#1 -684761787#0 4209642 28247400#0 28247400#1 28247400#2 28247401 624481020#4 689912267#0"/>
    </vehicle>
    <vehicle id="bike96" type="bike_bicycle" depart="420.07">
        <route edges="60263960 116556688 43135644#0 378479740#1 -700440136 -56163443#3 -150041594#1"/>
    </vehicle>
    <vehicle id="bike97" type="bike_bicycle" depart="421.49">
        <route edges="700440129 1290085526#0 150041594#0 56163443#1 700440137 700440134 214812788#2 73372559 -689912267#0 -624481020#4 -28247401 -28247397#1 -28247397#0 -4209642 -1244524929 700440148 378479743#0 378479743#1 378479743#2 378479743#3 378479743#4 378479743#5 378479743#6 700236092#0 700236092#1 700236093 44973978 506013711#1 4019053#2 -150032770#6"/>
    </vehicle>
    <vehicle id="bike98" type="bike_bicycle" depart="428.24">
        <route edges="-150032770#1 -150032770#0 327864903#0 327864903#1 218848625#1 539841923#0 539841923#1 -23015831 4195610#0 4195610#2 484022097 -4144040#2 -4144040#1 4195580#0 4195580#1 4195580#2 715835444#1 23508141#1 70205228#0 70205228#1"/>
    </vehicle>
    <vehicle id="bike99" type="bike_bicycle" depart="432.80">
        <route edges="700440129 1290085526#0 150041594#0 56163443#1 700440137 700440134 214812788#2 73372559 -689912267#0 -624481020#4 -28247401 -28247397#1 -28247397#0 -4209642 -1244524929 700440148 378479743#0 378479743#1 378479743#2 378479743#3 378479743#4 378479743#5 378479743#6 -1265069358#1 -256102751#0 257510647#1 254075881#1"/>
    </vehicle>
    <vehicle id="bike100" type="bike_bicycle" depart="435.76">
        <route edges="378479743#0 378479743#1 75392301#0 75392301#1 4195610#0 4195610#2"/>
    </vehicle>
    <vehicle id="bike101" type="bike_bicycle" depart="436.48">
        <route edges="150032770#6 103958941#0 -149518804#3 -149518804#2 4019053#2 -150032770#6 -150032770#5 -150032770#2 -150032770#1 -150032770#0 327864903#0 327864903#1 218848625#1 539841923#0 539841923#1 -23015831 4195610#0 4195610#2 484022097 -4144040#2 -4144040#1 4195580#0 4195580#1 4195580#2 715835444#1 -23508141#0"/>
    </vehicle>
    <vehicle id="bike102" type="bike_bicycle" depart="438.81">
        <route edges="-150032770#1 -150032770#0 327864903#0 327864903#1 218848625#1 539841923#0 539841923#1 -23015831 4195610#0 4195610#2 484022097 -4144040#2 -4144040#1 4195580#0 4195580#1 4195580#2 715835444#1 23508141#1 70205228#0 70205228#1 70205228#2 -70205228#2"/>
    </vehicle>
    <vehicle id="bike103" type="bike_bicycle" depart="442.56">
        <route edges="59591195#2 73372559 -689912267#0 -624481020#4 -28247401 -28247397#1 -28247397#0 -4209642 -1244524929 700440148 378479743#0 378479743#1 378479743#2 378479743#3 378479743#4"/>
    </vehicle>
    <vehicle id="bike104" type="bike_bicycle" depart="447.28">
        <route edges="624481020#4 689912267#0 214812786 116556686#1 -60263960 715835444#1 23508141#1 70205228#0 70205228#1"/>
    </vehicle>
    <vehicle id="bike105" type="bike_bicycle" depart="449.57">
        <route edges="-23015831 -75392301#1 -75392301#0 378479743#2 378479743#3 378479743#4 378479743#5 378479743#6 700236092#0 700236092#1"/>
    </vehicle>
    <vehicle id="bike106" type="bike_bicycle" depart="456.90">
        <route edges="-624481020#3 -334960656 334960656 624481020#2 624481020#4 689912267#0 214812786 378479740#1"/>
    </vehicle>
    <vehicle id="bike107" type="bike_bicycle" depart="458.56">
        <route edges="23248109#1 -378479743#3 -378479743#2 -378479743#1 -378479743#0 253230759#0 253230759#1 4209642 28247400#0 28247400#1 28247400#2 28247401 624481020#4 689912267#0 214812786 715913363#2 1290085525#0"/>
    </vehicle>
    <vehicle id="bike108" type="bike_bicycle" depart="464.43">
        <route edges="-715835444#2"/>
    </vehicle>
    <vehicle id="bike109" type="bike_bicycle" depart="467.12">
        <route edges="-881694399 -182982119#1 -150041551#3 -150041551#1 -150041551#0 -715835444#3 -715835444#2 -715835444#1 -4195580#2 -4195580#1 -4195580#0 -4144040#0"/>
    </vehicle>
    <vehicle id="bike110" type="bike_bicycle" depart="469.79">
        <route edges="214812788#2 73372559 -689912267#0 -624481020#4 -28247401 28247401 624481020#4 689912267#0 214812786 116556686#1 -60263960 715835444#1 -23508141#0"/>
    </vehicle>
    <vehicle id="bike111" type="bike_bicycle" depart="469.93">
        <route edges="214812788#2 73372559 -689912267#0 -624481020#4 -28247401 -28247397#1 -28247397#0 -4209642 -1244524929 700440148"/>
    </vehicle>
    <vehicle id="bike112" type="bike_bicycle" depart="470.62">
        <route edges="116556686#1 -60263960 715835444#1 715835444#2 715835444#3 150041551#0 150041551#1 -4295817#3 750168165 -750168165 4295817#3"/>
    </vehicle>
    <vehicle id="bike113" type="bike_bicycle" depart="471.49">
        <route edges="624481020#1 624481020#2 624481020#4 689912267#0 214812786 116556686#1 -60263960 715835444#1 -715835444#1 60263960"/>
    </vehicle>
    <vehicle id="bike114" type="bike_bicycle" depart="472.67">
        <route edges="-624481020#1 465884704 -23599727#1 -23599727#0 253230759#1 684761787#0 700440148 378479743#0 378479743#1 378479743#2 378479743#3 378479743#4 -365216932 365216933 -378479743#4 -378479743#3"/>
    </vehicle>
    <vehicle id="bike115" type="bike_bicycle" depart="475.58">
        <route edges="-4295817#0 4295817#0 -23508224 -715835444#5 -715835444#4 -715835444#3 -715835444#2 -715835444#1 60263960 116556688 43135644#0 715913363#2 1290085525#0 1290085525#1 700440148 378479743#0 378479743#1"/>
    </vehicle>
    <vehicle id="bike117" type="bike_bicycle" depart="481.82">
        <route edges="-4144040#4 -585579893 585579893 4144040#4 506015829#1"/>
    </vehicle>
    <vehicle id="bike119" type="bike_bicycle" depart="494.37">
        <route edges="506013711#1 4019053#2 -150032770#6 -150032770#5 -150032770#2 -150032770#1 -150032770#0 327864903#0 327864903#1 218848625#1 539841923#0 539841923#1 -23015831 4195610#0 4195610#2 484022097 -4144040#2 -4144040#1 4195580#0 4195580#1 4195580#2 715835444#1 715835444#2 715835444#3 150041551#0 150041551#1"/>
    </vehicle>
    <vehicle id="bike120" type="bike_bicycle" depart="497.07">
        <route edges="70205228#2 -70205228#2 -70205228#1 -70205228#0 -23508141#1 715835444#2 715835444#3 715835444#4 715835444#5 23508224"/>
    </vehicle>
    <vehicle id="bike121" type="bike_bicycle" depart="497.40">
        <route edges="395456769#1 24509268 700440138 700440139 -378479743#6 -378479743#5 -378479743#4 -23248109#1 23248109#1 378479743#4 378479743#5"/>
    </vehicle>
    <vehicle id="bike122" type="bike_bicycle" depart="510.50">
        <route edges="700440129 1290085526#0 150041594#0 56163443#1 700440137 700440134 214812788#2 73372559 -689912267#0 -624481020#4 -28247401 -28247397#1 -28247397#0 -4209642 -1244524929 700440148 378479743#0 378479743#1 378479743#2 378479743#3 378479743#4 378479743#5 378479743#6"/>
    </vehicle>