<?xml version="1.0" encoding="UTF-8"?>

<!-- generated on 2024-10-26 10:33:02.989026 by randomTrips.py UNKNOWN
<configuration>
    <net-file value="/opt/homebrew/opt/sumo/share/sumo/tools/2024-10-08-17-29-51/241026/241026_A035.net.xml"/>
    <route-file value="241026_2_random_route_pedestrian.rou.xml"/>
    <pedestrians value="True"/>
    <prefix value="pedestrian"/>
    <verbose value="True"/>
    <insertion-density value="70.0"/>
    <random-depart value="True"/>
</configuration>
-->

<!-- generated on 2024-10-26 10:33:02 by Eclipse SUMO duarouter Version 1.20.0
<configuration xmlns:xsi="http://www.w3.org/2001/XMLSchema-instance" xsi:noNamespaceSchemaLocation="http://sumo.dlr.de/xsd/duarouterConfiguration.xsd">

    <input>
        <net-file value="/opt/homebrew/opt/sumo/share/sumo/tools/2024-10-08-17-29-51/241026/241026_A035.net.xml"/>
        <route-files value="trips.trips.xml"/>
    </input>

    <output>
        <output-file value="241026_2_random_route_pedestrian.rou.xml"/>
        <alternatives-output value="NUL"/>
    </output>

    <time>
        <begin value="0.0"/>
        <end value="3600.0"/>
    </time>

    <report>
        <verbose value="true"/>
        <ignore-errors value="true"/>
        <no-step-log value="true"/>
    </report>

</configuration>
-->

<routes xmlns:xsi="http://www.w3.org/2001/XMLSchema-instance" xsi:noNamespaceSchemaLocation="http://sumo.dlr.de/xsd/routes_file.xsd">
    <person id="pedestrian0" depart="1.59">
        <walk edges="624481020#0 -624481020#0 -624481020#1 -334960656 334960660 -23599727#1 -23599727#0 253230759#0 -378479743#0 -378479743#1 -378479743#2 -378479743#3 -23248109#1 -23248109#0 -23248118 689756683 -638694840#1 638694840#0 4213561#1 4213561#0 4213557 256102749 256102750#1 256102750#0 -256102748 286646440"/>
    </person>
    <person id="pedestrian1" depart="2.52">
        <walk edges="150032863#0 150032863#1 149518802#0 149518802#1 150032842 528567529 -378479743#6 700440139 700440138 E1.13 257510647#1 -257510647#0 -559675981 256102746#0 256105105#9 -256102748 286646440 56447699#1 22938316#0"/>
    </person>
    <person id="pedestrian3" depart="10.11">
        <walk edges="624481020#0 -624481020#0 -624481020#1 -334960656 334960660 -23599727#1 -23599727#0 253230759#0 -378479743#0 -378479743#1 378479743#2 378479743#3 378479743#4 365216933"/>
    </person>
    <person id="pedestrian5" depart="14.18">
        <walk edges="1185258336#3 -1185258339 29895520#0 -29895519#2 -29895519#1 150041716#3 150041716#4 255729754#0"/>
    </person>
    <person id="pedestrian6" depart="21.96">
        <walk edges="-359458208#1 50507098#0 -50507110 196656222#1 196656222#2 700440130#0 700440130#1 700440128 4295817#0 -23508224 -715835444#5 -715835444#4 -715835444#3 -715835444#2 -23508141#0 23508142#0"/>
    </person>
    <person id="pedestrian7" depart="29.75">
        <walk edges="-150041624#0 -150041624#1 881694397 -700440128 -700440130#1 -700440130#0 -150041699#1 -150041645#0 150041645#4"/>
    </person>
    <person id="pedestrian8" depart="31.40">
        <walk edges="395456769#0 395456769#1 24509268 E1.13 257510647#1 56028463#1 -56015406#1"/>
    </person>
    <person id="pedestrian9" depart="33.12">
        <walk edges="987109589#0 -987109589#1 689756683 -23248118 -23248109#0 -23248109#1 -378479743#4 -378479743#5 378479743#6 700236092#0 700236092#1 -150032873 -984768176#1 255729814#0 255729814#1 -150032770#6 218649572 319910922 319910923#0"/>
    </person>
    <person id="pedestrian10" depart="41.74">
        <walk edges="-23401995#3 -23401995#2 -23401995#1 -149518804#3 -149518804#2 -149518804#0 -984768176#1 -150032873 700236092#1 700236092#0 378479743#6 378479743#5 378479743#4 378479743#3 378479743#2 378479743#1 378479743#0 700440148 255729754#2 255729754#1 255729754#0 150041716#4 150041716#3 -29895519#1 -886547965#1 886404164#0 886404164#1"/>
    </person>
    <person id="pedestrian11" depart="50.88">
        <walk edges="1162647991 -150041645#4 -359458208#1 50507098#0 -50507110 196656222#1 196656222#2 700440130#0 700440130#1 700440128 4295817#0 4295817#1"/>
    </person>
    <person id="pedestrian12" depart="56.06">
        <walk edges="-749484712#1 749484712#1 255729754#0 715910744#0 715910744#1"/>
    </person>
    <person id="pedestrian13" depart="57.56">
        <walk edges="378491236 -150041636#0 -150041636#1 -150041636#2 -150041594#1 -150041624#0 -150041624#1 881694397 -700440128 -700440130#1 -700440130#0 -150041699#1 -150041645#0 -150041645#4 -359458213"/>
    </person>
    <person id="pedestrian14" depart="60.37">
        <walk edges="150041689 43206316 -150041624#3 150041624#2 -150041624#1 -150041624#0 -150041594#1 -150041636#2 150041636#1"/>
    </person>
    <person id="pedestrian15" depart="60.91">
        <walk edges="-148061769 255729754#0 255729754#1 255729754#2 700440148 378479743#0 378479743#1 378479743#2 378479743#3 -378479743#4 -378479743#5 -378479743#6 700440139 700440138 E1.13 257510647#1 -257510647#0"/>
    </person>
    <person id="pedestrian16" depart="70.47">
        <walk edges="-715910744#1 4195580#2 4195580#1 4195580#0 -4144040#1 -4144040#2 484022097 4195610#2 -13858853 -47492539 13858854 -24507771 -1287285290#3 -539841923#0 150032863#1 150032863#2"/>
    </person>
    <person id="pedestrian17" depart="76.49">
        <walk edges="150032770#1 150032770#0 -327864903#0 -327864903#1 -218848625#1 -539841923#0 150032863#1 149518802#0 149518802#1 150032842 528567529 -378479743#6 700440139 700440138 E1.13 257510647#1 56028463#1 -56015406#1 256105105#5"/>
    </person>
    <person id="pedestrian18" depart="77.90">
        <walk edges="150041716#2 150041716#1 150041551#2 150041551#1 150041551#0 -715835444#4"/>
    </person>
    <person id="pedestrian19" depart="79.69">
        <walk edges="257510647#1 E1.13 700440138 700440139 -378479743#6 -378479743#5 -378479743#4 378479743#3 378479743#2 378479743#1 378479743#0 700440148 255729754#2 255729754#1 255729754#0 150041716#4 150041716#3 -150041716#2 150041716#1 150041594#0 1290085526#0 700440129 700440128 -285295366"/>
    </person>
    <person id="pedestrian20" depart="79.92">
        <walk edges="987109589#1 689756683 -23248118 -23248109#0 -23248109#1 -378479743#4 365216933 149518793 149518802#0 150032863#2 150032863#3 319910910#0 377601585"/>
    </person>
    <person id="pedestrian23" depart="86.84">
        <walk edges="359458205 -884145210#0 359458217#0 -150041645#0 -150041699#1 -700440130#0 -700440130#1 -700440128 700440129 1290085526#0 150041594#0 150041716#1 -150041716#2 150041716#3 150041716#4 255729754#0 255729754#1 255729754#2 700440148 378479743#0 378479743#1 378479743#2 378479743#3 -23248109#1 -23248109#0 -23248118 689756683 -638694840#1 -638694840#0"/>
    </person>
    <person id="pedestrian24" depart="87.62">
        <walk edges="459339931 -23599727#1 -23599727#0 253230759#0 -378479743#0 -378479743#1 378479743#2 378479743#3 378479743#4 378479743#5 378479743#6 700236092#0 700236092#1 -150032873 -984768175"/>
    </person>
    <person id="pedestrian25" depart="94.65">
        <walk edges="319910912 319910910#1 319910910#0 150032863#3 150032863#2 149518802#0 149518793 365216933 378479743#4 378479743#3 378479743#2 378479743#1 378479743#0 700440148 255729754#2 255729754#1 255729754#0 150041716#4 150041716#3 -150041716#2 886547966"/>
    </person>
    <person id="pedestrian26" depart="101.41">
        <walk edges="256102744 -257510647#0 257510647#1 E1.13 700440138 700440139 -378479743#6 -378479743#5 -378479743#4 378479743#3 378479743#2 378479743#1 378479743#0 700440148 255729754#2 255729754#1 255729754#0 150041716#4 150041716#3 -150041716#2 150041716#1 150041551#2 4295817#3"/>
    </person>
    <person id="pedestrian27" depart="102.82">
        <walk edges="365216929 149518802#0 150032863#2 150032863#3 150032863#4 -1287285290#0 -984768176#1 255729814#0 255729814#1 -150032770#6 218649572 319910922 319910923#0 319910923#1 319911561"/>
    </person>
    <person id="pedestrian28" depart="105.16">
        <walk edges="-1185258342 1185258342 -1185258336#0 1185258336#2 -1185258339 29895520#0 -29895519#2 -29895519#1 150041716#3 150041716#4 255729754#0 255729754#1 255729754#2 700440148 378479743#0 378479743#1 378479743#2 378479743#3 378479743#4 365216933 149518793 149518802#0 150032863#2"/>
    </person>
    <person id="pedestrian29" depart="105.34">
        <walk edges="881694399 182982119#0 150041716#1 -150041716#2 150041716#3 150041716#4 255729754#0 255729754#1 255729754#2 4144040#4 4144040#3 484022097 4195610#2 4195610#0"/>
    </person>
    <person id="pedestrian30" depart="111.47">
        <walk edges="4144040#4 255729754#2 255729754#1 255729754#0 255729810"/>
    </person>
    <person id="pedestrian31" depart="115.88">
        <walk edges="359458217#2 -150041645#0 -150041699#1 -700440130#0 -700440130#1 -700440128 700440129 1290085526#0 150041594#0 150041716#1 -150041716#2 150041716#3 150041716#4 255729754#0 255729754#1 255729754#2 700440148 378479743#0 378479743#1 378479743#2 378479743#3 -378479743#4 -378479743#5 -378479743#6 700440139 700440138 E1.13 257510647#1 -257510647#0 256102744"/>
    </person>
    <person id="pedestrian32" depart="117.58">
        <walk edges="-29895520#0 -29895519#2 -29895519#1 150041716#3 150041716#4 E4 255729797#1 689912266 -624481020#4 -28247401 28247397#1"/>
    </person>
    <person id="pedestrian33" depart="125.78">
        <walk edges="26937083#0 257510661#2 439271818#2 439271818#0 439271817#2 -150032873 -984768176#1 -149518804#0 -149518804#2 -149518804#3 -23401995#1 -23401995#2 52414187"/>
    </person>
    <person id="pedestrian34" depart="127.29">
        <walk edges="-28247400#0 -4209642 253230759#1 253230759#0 -378479743#0 -378479743#1 378479743#2 378479743#3 378479743#4 378479743#5 378479743#6 700236092#0 700236092#1 -150032873 -984768176#1 255729814#0 255729814#1 -150032770#6 218649572 319910922 319910923#0"/>
    </person>
    <person id="pedestrian35" depart="127.41">
        <walk edges="-1287285290#0 150032863#4 150032863#3 150032863#2 149518802#0 149518793 365216933 378479743#4 378479743#3 378479743#2 378479743#1 378479743#0 700440148 255729754#2 255729754#1 255729754#0 150041716#4 150041716#3 -150041716#2 150041716#1 150041551#2 4295817#3 750168165"/>
    </person>
    <person id="pedestrian36" depart="127.79">
        <walk edges="-23248109#0 -23248109#1 378479743#3 378479743#2 378479743#1 378479743#0 700440148 255729754#2 255729754#1 255729754#0 150041716#4 150041716#3 -29895519#1 -29895519#2 29895520#0 -1185258339 -1185258336#3 -1185258336#4"/>
    </person>
    <person id="pedestrian37" depart="130.59">
        <walk edges="-69990712 43206316 -150041624#3 150041624#2 -150041624#1 -150041624#0 -150041594#1 -150041636#2 -150041636#1 -150041636#0 -378491236 E4 255729797#1 689912266 -624481020#4 -28247401"/>
    </person>
    <person id="pedestrian38" depart="133.15">
        <walk edges="319911562 319910923#0 319910922 218649572 150032770#5 150032770#2 150032770#1 150032770#0 -327864903#0 -327864903#1 -218848625#1 -1287285290#3 -24507771 13858854 -47492539 -13858853 4195610#2 484022097 -4144040#2 -4144040#1 4195580#0 4195580#1 4195580#2 715835444#1 715835444#2 1153038902#4 1185258342"/>
    </person>
    <person id="pedestrian39" depart="147.53">
        <walk edges="4144040#3 -4144040#2 -4144040#1 4195580#0 4195580#1 4195580#2 715835444#1 715835444#2 1153038902#4 1153038902#2 -1153038902#0 -29895520#3 -23101679#0 -150041551#1 4295817#3 4295817#1 4295817#0 700440128 700440130#1"/>
    </person>
    <person id="pedestrian40" depart="151.32">
        <walk edges="563896824 -1287285290#3 -539841923#0 150032863#1 149518802#0 149518802#1 150032842 528567529 378479743#6 700236092#0 365217759"/>
    </person>
    <person id="pedestrian41" depart="151.35">
        <walk edges="-150032770#6 255729814#1 150032812#1 -149518804#2 -149518804#3 -26730977#2"/>
    </person>
    <person id="pedestrian42" depart="154.25">
        <walk edges="-366601856 366601855 4213561#1 638694840#0 -638694840#1 689756683 -23248118 -23248109#0 -23248109#1 378479743#3 378479743#2 378479743#1 378479743#0 700440148 255729754#2 255729754#1 255729754#0 148061769 715835444#1 -715835444#2"/>
    </person>
    <person id="pedestrian43" depart="154.96">
        <walk edges="29895520#1 -29895520#2 -29895520#3 -23101679#0 -150041551#1 4295817#3 4295817#1 4295817#0 700440128 700440130#1 700440130#0 196656222#2 196656222#1"/>
    </person>
    <person id="pedestrian44" depart="156.65">
        <walk edges="-69990712 43206316 -150041624#3 150041624#2 881694397 -4295817#0 -4295817#1 -4295817#3 150041551#1 -23101679#0 -29895520#3 -29895520#2"/>
    </person>
    <person id="pedestrian45" depart="156.72">
        <walk edges="700236092#0 378479743#6 378479743#5 378479743#4 378479743#3 378479743#2 378479743#1 378479743#0 700440148 255729754#2 255729754#1 255729754#0 150041716#4 150041716#3 -150041716#2 150041716#1 150041551#2 4295817#3 -750168165"/>
    </person>
    <person id="pedestrian46" depart="162.66">
        <walk edges="-806364424 -150032770#0 -327864903#0 -327864903#1 -218848625#1 -1287285290#3 -24507771 13858854 -47492539 -13858853 4195610#2 -484022097 4144040#2 4144040#1"/>
    </person>
    <person id="pedestrian47" depart="163.47">
        <walk edges="359458217#0 -150041645#0 -150041699#1 -700440130#0 -700440130#1 -700440128 -4295817#0 -4295817#1 -4295817#3 150041551#1 -23101679#0 -29895520#3 -1153038902#0 1153038902#2 1153038902#4 715835444#2 715835444#1 4195580#2 4195580#1 4195580#0 -4144040#1 285188050"/>
    </person>
    <person id="pedestrian48" depart="163.49">
        <walk edges="327864899 327864898 150032770#5 -150032770#6 255729814#1 255729814#0 -984768176#1 -150032873 700236092#1 700236092#0 378479743#6 -378479743#6 700440139 700440138 E1.13 257510647#1 -257510647#0 -559675981 256105105#8"/>
    </person>
    <person id="pedestrian49" depart="164.08">
        <walk edges="-359458206 1162647991 -150041645#4 -150041645#0 -13755982 -150041689 -43206316"/>
    </person>
    <person id="pedestrian50" depart="164.19">
        <walk edges="23508224 715835444#5 715835444#4 715835444#3 715835444#2 715835444#1 4195580#2 4195580#1 4195580#0 -4144040#1"/>
    </person>
    <person id="pedestrian51" depart="168.28">
        <walk edges="886404164#0 -886547965#1 -29895519#1 150041716#3 150041716#4 E4 255729797#1 689912266 -624481020#4"/>
    </person>
    <person id="pedestrian53" depart="173.09">
        <walk edges="35098345 -378479743#0 700440148 255729754#2 255729754#1 255729754#0 150041716#4 150041716#3 -150041716#2 150041716#1 150041594#0 1290085526#0 -700440129"/>
    </person>
    <person id="pedestrian54" depart="173.97">
        <walk edges="-750168167 -4295817#3 -150041551#1 -150041551#0 715835444#4"/>
    </person>
    <person id="pedestrian55" depart="178.56">
        <walk edges="4295817#1 4295817#3 -150041551#1 -23101679#0 -29895520#3 -1153038902#0 1153038902#2 1153038902#4 715835444#2 715835444#1 4195580#2 4195580#1 4195580#0 -4144040#1 -4144040#2 484022097 4195610#2 -13858853 -47492539 13858854 -24507771 -1287285290#3 -539841923#0"/>
    </person>
    <person id="pedestrian56" depart="178.99">
        <walk edges="-23508141#1 715835444#1 4195580#2 4195580#1 4195580#0 -4144040#1 -4144040#2 484022097 4195610#2 -13858853 -47492539 13858854 -24507771 -1287285290#3 -218848625#1 -327864903#1 -327864903#0 150032770#0 150032770#1 150032770#2 150032770#5 218649572 319910922 319910923#0 319910923#1 319910923#2 319910914 319910916"/>
    </person>
    <person id="pedestrian57" depart="181.86">
        <walk edges="-E1.13 -E1 439271817#2 700236092#1 700236092#0 378479743#6 378479743#5 378479743#4 378479743#3 378479743#2 378479743#1 378479743#0 700440148 255729754#2 255729754#1 255729754#0 -378491236 -150041636#0 -150041636#1 150041661 957138676#0"/>
    </person>
    <person id="pedestrian59" depart="186.02">
        <walk edges="439271815#0 378543235#1 847071794 378543238 4213561#1 366601855 366601856 256102750#3 -56015406#0 -56015406#1 56028463#1 257510647#1 E1.13 700440138 700440139 -378479743#6 378479743#6 700236092#0 700236092#1 -150032873 -984768176#1 255729814#0 255729814#1 -150032770#6 150032770#5 -572523427"/>
    </person>
    <person id="pedestrian61" depart="188.17">
        <walk edges="-750168166#1 -750168166#0 715835444#4 150041551#0 150041551#1 150041551#2 -150041636#2 -150041636#1 -150041636#0 4305021#0 148061776#0"/>
    </person>
    <person id="pedestrian63" depart="192.05">
        <walk edges="-359458219 -884145210#0 359458217#0 -150041645#0 -150041699#1 -700440130#0 -700440130#1 -700440128 700440129 1290085526#0 150041594#0 150041716#1 -150041716#2 150041716#3 150041716#4 255729754#0 255729754#1 255729754#2 700440148 378479743#0 378479743#1 378479743#2 378479743#3 -23248109#1 -23248109#0 -23248118 689756683 -638694840#1 638694840#0 4213561#1 4213561#0 4213557 256102749 256102750#1 256102750#0 -256102748 286646440 56447699#1 22938316#1"/>
    </person>
    <person id="pedestrian64" depart="195.68">
        <walk edges="715835444#3 715835444#2 715835444#1 4195580#2 4195580#1 4195580#0 -4144040#1 -4144040#2 484022097 4195610#2 -13858853 -47492539 13858854 -24507771 -1287285290#3 -218848625#1 327864903#1"/>
    </person>
    <person id="pedestrian65" depart="200.94">
        <walk edges="-257510647#0 257510648"/>
    </person>
    <person id="pedestrian66" depart="205.23">
        <walk edges="256102746#1 256102750#1 256102749 4213557 4213561#0 4213561#1 638694840#0 -638694840#1 689756683 -23248118 -23248109#0 -23248109#1 378479743#3 378479743#2 378479743#1 378479743#0 700440148 255729754#2 255729754#1 255729754#0 150041716#4 150041716#3 -150041716#2 150041716#1 -150041551#3 -4295817#3"/>
    </person>
    <person id="pedestrian67" depart="205.46">
        <walk edges="319910910#0 150032863#3 1287285289 1287285290#2 218848625#1"/>
    </person>
    <person id="pedestrian69" depart="207.06">
        <walk edges="1185258343 1153038902#2 -1153038902#0 -29895520#3 -23101679#0 150041551#1 -4295817#3 -4295817#1 -4295817#0 -700440128 -700440130#1 -700440130#0 -150041699#1 -150041645#0 -150041645#4 359458213"/>
    </person>
    <person id="pedestrian70" depart="207.43">
        <walk edges="-182982119#1 -150041551#3 150041551#1 -23101679#0 -29895520#3 -1153038902#0 1153038902#2 1153038902#4 715835444#2 715835444#1 4195580#2 4195580#1 4195580#0 4144040#1"/>
    </person>
    <person id="pedestrian71" depart="210.06">
        <walk edges="-1153038902#4 -715835444#2 23508141#0"/>
    </person>
    <person id="pedestrian72" depart="210.63">
        <walk edges="715835444#1 715835444#2 1153038902#4 -1185258336#0 1185258338#0"/>
    </person>
    <person id="pedestrian73" depart="213.93">
        <walk edges="715835444#4 715835444#3 715835444#2 715835444#1 4195580#2 4195580#1 4195580#0 -4144040#1 -4144040#2 484022097 4195610#2 -13858853 -47492539 13858854 -24507771 -1287285290#3 -218848625#1 -327864903#1 -327864903#0 150032770#0 150032770#1 150032770#2 572523427"/>
    </person>
    <person id="pedestrian74" depart="214.21">
        <walk edges="150032863#4 150032863#3 150032863#2 149518802#0 149518793 365216933 378479743#4 378479743#3 378479743#2 378479743#1 378479743#0 700440148 255729754#2 255729754#1 255729754#0 150041716#4 150041716#3 -150041716#2 150041716#1 150041594#0 1290085526#0 700440129 -700440128 -700440130#1 -700440130#0 -150041699#1 -150041645#0 -150041645#4 1162647991 -359458216"/>
    </person>
    <person id="pedestrian75" depart="215.01">
        <walk edges="881694397 -150041624#1 -150041624#0 150041594#0 150041716#1 -150041716#2 -29895519#1 -29895519#2 -715802321"/>
    </person>
    <person id="pedestrian77" depart="229.68">
        <walk edges="-150041682 -23248109#1 378479743#3 378479743#2 378479743#1 378479743#0 700440148 255729754#2"/>
    </person>
    <person id="pedestrian78" depart="237.16">
        <walk edges="22911004 -23248118 -23248109#0 -23248109#1 378479743#3 378479743#2 378479743#1 378479743#0 700440148 255729754#2 255729754#1 255729754#0 150041716#4 150041716#3 -150041716#2 150041716#1 150041594#0 1290085526#0 700440129 -700440128 -700440130#1 -700440130#0 -150041699#1 -150041645#0 359458217#0 -884145210#0 359458219"/>
    </person>
    <person id="pedestrian79" depart="239.28">
        <walk edges="715835444#5 715835444#4 715835444#3 715835444#2 715835444#1 148061769 255729754#0 255729754#1 255729754#2 700440148 378479743#0 378479743#1 378479743#2 378479743#3 378479743#4 378479743#5 378479743#6 700236092#0"/>
    </person>
    <person id="pedestrian80" depart="240.56">
        <walk edges="-29895520#3 -29895520#2 -29895520#1 29895520#0 -29895519#2 -29895519#1 150041716#3 150041716#4 255729754#0 255729754#1 465884703#2 -1244524929 253230759#1 -23599727#0 -23599727#1 334960660 -334960656 -624481020#1 -624481020#0 624481020#0"/>
    </person>
    <person id="pedestrian81" depart="241.23">
        <walk edges="-29895520#3 -23101679#0 -150041551#1 4295817#3 4295817#1 4295817#0 700440128 700440130#1 700440130#0"/>
    </person>
    <person id="pedestrian82" depart="245.48">
        <walk edges="E1.13 700440138 700440139 -378479743#6 -378479743#5 -378479743#4 378479743#3 378479743#2 378479743#1 378479743#0 700440148 255729754#2 255729754#1 255729754#0 150041716#4 150041716#3 -150041716#2 150041716#1 150041594#0 1290085526#0 700440129 -700440128 -700440130#1 -700440130#0 -150041699#1 -150041645#0 -150041645#4 -359458213 1162647992"/>
    </person>
    <person id="pedestrian83" depart="246.21">
        <walk edges="150041624#2 881694397 -4295817#0 23508224 715835444#5"/>
    </person>
    <person id="pedestrian84" depart="248.29">
        <walk edges="874725445 -218848625#1 -1287285290#3 -24507771 13858854 -47492539 -13858853 4195610#2 484022097 4144040#3 4144040#4 700440148"/>
    </person>
    <person id="pedestrian85" depart="248.80">
        <walk edges="56447699#1 286646440 -256102748 256102750#0 256102750#1 256102749 4213557 4213561#0 4213561#1 638694840#0 -638694840#1 689756683 -23248118 -23248109#0 -23248109#1 378479743#3 378479743#2 378479743#1 378479743#0 700440148 255729754#2 255729754#1 255729754#0 150041716#4 150041716#3 -150041716#2 150041716#1 150041594#0 -150041624#0 -526519487 -115485620#1"/>
    </person>
    <person id="pedestrian86" depart="249.45">
        <walk edges="253230759#0 700440148 255729754#2 255729754#1 255729754#0 150041716#4 150041716#3 -29895519#1 -29895519#2 29895520#0 -29895520#1 -29895520#2 -29895520#3 -23101679#0"/>
    </person>
    <person id="pedestrian88" depart="258.19">
        <walk edges="987109589#0 -987109589#1 689756683 23248118"/>
    </person>
    <person id="pedestrian89" depart="258.84">
        <walk edges="150041624#1 -150041624#0 150041594#0 -150041551#3 150041551#1 -23101679#0 -29895520#3 -1153038902#0 1153038902#2 1153038902#4 715835444#2 715835444#1 715910744#1"/>
    </person>
    <person id="pedestrian90" depart="260.13">
        <walk edges="539841923#1 -539841923#0 -218848625#1 -327864903#1 -327864903#0 -150032770#0 -150032770#1 -150032770#2 -150032770#5 -150032770#6 255729814#1 150032812#2"/>
    </person>
    <person id="pedestrian91" depart="262.23">
        <walk edges="-359458208#0 50507098#0 -50507110 196656222#1 196656222#2 700440130#0 700440130#1 700440128 700440129 1290085526#0 150041594#0 150041716#1 -150041716#2 150041716#3 150041716#4 255729754#0 255729754#1 255729754#2 700440148 378479743#0 378479743#1 378479743#2 378479743#3 -23248109#1"/>
    </person>
    <person id="pedestrian92" depart="263.17">
        <walk edges="-285295366 700440128 4295817#0 4295817#1 4295817#3 -150041551#1 -23101679#0 -29895520#3 -1153038902#0 1153038902#2 1153038902#4 715835444#2 715835444#1 4195580#2 4195580#1 4195580#0 -4144040#1 -4144040#2 484022097 4195610#2 -13858853 -47492539 13858854 -24507771 -1287285290#3 -218848625#1 -327864903#1 -327864903#0 150032770#0 150032770#1 150032770#2"/>
    </person>
    <person id="pedestrian94" depart="267.22">
        <walk edges="366601855 4213561#1"/>
    </person>
    <person id="pedestrian95" depart="269.02">
        <walk edges="253230759#0 -378479743#0 -378479743#1 -378479743#2 -378479743#3 -23248109#1 -23248109#0 -23248118 689756683 -638694840#1 638694840#0 378543238 847071794 378543235#0"/>
    </person>
    <person id="pedestrian96" depart="269.43">
        <walk edges="-29895520#3 -29895520#2 -29895520#1 29895520#0 -29895519#2 -29895519#1 150041716#3 150041716#4 255729754#0 255729754#1 255729754#2 700440148 378479743#0 378479743#1 378479743#2 378479743#3 -23248109#1 -23248109#0 -23248118 689756683 -638694840#1 638694840#0 4213561#1 366601855 366601856 256102750#3 -56015406#0 56015406#1"/>
    </person>
    <person id="pedestrian98" depart="271.57">
        <walk edges="150041716#2 150041716#1 150041594#0 1290085526#0 700440129 -700440128 -700440130#1 -700440130#0 -150041699#1 -150041645#0 -150041645#4"/>
    </person>
    <person id="pedestrian100" depart="276.27">
        <walk edges="-28230108 -150041636#0 -378491236 715910744#0 -715910744#1 -715835444#1"/>
    </person>
    <person id="pedestrian102" depart="277.74">
        <walk edges="-4195580#2 -4195580#1 -4195580#0 -4144040#1 -4144040#2 4144040#3 4144040#4 700440148 378479743#0 378479743#1 378479743#2 378479743#3 -23248109#1 378479753"/>
    </person>
    <person id="pedestrian104" depart="280.36">
        <walk edges="359458219 -884145210#0 359458217#0 -1160713521"/>
    </person>
    <person id="pedestrian105" depart="280.97">
        <walk edges="286646440 -256102748 256105105#9 256102746#0 -559675981 -257510647#0 257510647#1 E1.13 700440138 700440139 -378479743#6 378479743#6 700236092#0 700236092#1 -150032873 -984768176#1 255729814#0 255729814#1 -150032770#6 150032770#5 327864898 327864899"/>
    </person>
    <person id="pedestrian106" depart="284.67">
        <walk edges="-150032770#6 255729814#1 150032812#1 -149518804#2 -149518804#3 -23401995#1 -23401995#2 -23401995#3"/>
    </person>
    <person id="pedestrian107" depart="284.98">
        <walk edges="-689912267#0 689912266 255729797#1 E4 150041716#4 150041716#3 -29895519#1 -29895519#2 29895520#0 -1185258339 1185258336#2 1185258338#0"/>
    </person>
    <person id="pedestrian108" depart="285.95">
        <walk edges="150041636#2 -150041636#1 -150041636#0 -378491236 E4 255729797#1 1244524930 253230759#1 253230759#0 -378479743#0 -378479743#1 -378479743#2 -378479743#3 -23248109#1 -23248109#0 -23248118 689756683"/>
    </person>
    <person id="pedestrian109" depart="290.82">
        <walk edges="334960660 -23599727#1 -23599727#0 253230759#1 -1244524929 465884703#2 255729754#1 255729754#0 150041716#4 150041716#3 -150041716#2 150041716#1 150041594#0 -150041624#0 -150041624#1 150041624#2 -150041624#3 43206316 -69990712 -69990704"/>
    </person>
    <person id="pedestrian110" depart="291.49">
        <walk edges="-23401995#2 -23401995#1 -149518804#3 -149518804#2 -149518804#0 -984768176#1 -150032873 700236092#1 700236092#0 378479743#6 378479743#5 378479743#4 378479743#3 378479743#2 378479743#1 378479743#0 700440148 255729754#2 255729754#1 255729754#0 150041716#4 150041716#3 -150041716#2 150041716#1 150041594#0 1290085526#0 700440129 700440128"/>
    </person>
    <person id="pedestrian111" depart="292.17">
        <walk edges="-624481020#1 -334960656 334960660 -23599727#1 -23599727#0 253230759#0 -378479743#0 -378479743#1 -378479743#2 -378479743#3 -378479743#4 -378479743#5 -378479743#6 700440139 700440138 E1.13 257510647#1 257510648"/>
    </person>
    <person id="pedestrian112" depart="292.31">
        <walk edges="-378479743#6 700440139 700440138 E1.13 257510647#1 -257510647#0 -559675981 256102746#0 256105105#9 -256102748"/>
    </person>
    <person id="pedestrian113" depart="295.51">
        <walk edges="-285156957 4195580#1 4195580#0 -4144040#1 -4144040#2 4144040#3 4144040#4 700440148 378479743#0 378479743#1 378479743#2 378479743#3 378479743#4"/>
    </person>
    <person id="pedestrian114" depart="297.00">
        <walk edges="256105105#5 256102750#3 366601856 366601855 4213561#1 638694840#0 -638694840#1 689756683 -23248118 -23248109#0 -23248109#1 -378479743#3 -378479743#2 -378479743#1 -378479743#0 253230759#0 253230759#1 -1244524929 1244524929"/>
    </person>
    <person id="pedestrian115" depart="298.44">
        <walk edges="23401995#3 52414187 319910916 319910914 319910923#2 319910923#1 319910923#0 319910922 218649572 150032770#5 150032770#2 150032770#1 150032770#0 -327864903#0 -327864903#1 -218848625#1 -539841923#0 150032863#0"/>
    </person>
    <person id="pedestrian116" depart="298.73">
        <walk edges="22938316#0 56447699#1 286646440 -256102748 256102750#0 256102750#1 256102749 4213557 4213561#0 4213561#1 638694840#0 -638694840#1 689756683 -23248118 -23248109#0 -23248109#1 378479743#3 378479743#2 378479743#1 378479743#0 700440148 255729754#2 255729754#1 255729754#0 150041716#4 150041716#3 -29895519#1 -29895519#2 29895520#0 -29895520#1 29895520#2"/>
    </person>
    <person id="pedestrian117" depart="300.22">
        <walk edges="-378479743#6 -378479743#5 -378479743#4 378479743#3 378479743#2 378479743#1 378479743#0 700440148 255729754#2 255729754#1 255729754#0 150041716#4 150041716#3 -150041716#2 150041716#1 150041594#0 -150041624#0 -150041624#1 150041624#2 -150041624#3 -43206316"/>
    </person>
    <person id="pedestrian118" depart="302.38">
        <walk edges="378491236 255729754#0 255729754#1 255729754#2 4144040#4 4144040#3 484022097 4195610#2 -13858853 -47492539 13858854 -24507771 563896824"/>
    </person>
    <person id="pedestrian119" depart="302.53">
        <walk edges="-150041636#1 -150041636#0 -378491236 255729754#0 255729754#1 255729754#2 700440148 378479743#0 378479743#1 378479743#2 378479743#3 378479743#4 365216933 149518793"/>
    </person>
    <person id="pedestrian120" depart="303.60">