<?xml version="1.0" encoding="UTF-8"?>

<!-- generated on 2024-10-26 08:51:31.315622 by randomTrips.py UNKNOWN
<configuration>
    <net-file value="/opt/homebrew/opt/sumo/share/sumo/tools/2024-10-08-17-29-51/241026/241026_A036_net.xml"/>
    <route-file value="241026_random_route_cars.rou.xml"/>
    <vehicle-class value="passenger"/>
    <verbose value="True"/>
    <insertion-density value="40.0"/>
    <random-depart value="True"/>
</configuration>
-->

<routes xmlns:xsi="http://www.w3.org/2001/XMLSchema-instance" xsi:noNamespaceSchemaLocation="http://sumo.dlr.de/xsd/routes_file.xsd">
    <vType id="passenger" vClass="passenger"/>
    <trip id="0" depart="1.96" from="715913363#2" to="378479753" type="passenger"/>
    <trip id="1" depart="2.05" from="624481020#4" to="4195610#0" type="passenger"/>
    <trip id="2" depart="14.84" from="150041551#2" to="43135644#0" type="passenger"/>
    <trip id="3" depart="29.42" from="73372559" to="-624481020#3" type="passenger"/>
    <trip id="4" depart="60.71" from="60263960" to="23248109#1" type="passenger"/>
    <trip id="5" depart="79.76" from="196656222#0" to="150032770#5" type="passenger"/>
    <trip id="6" depart="79.96" from="44973978" to="-624481020#3" type="passenger"/>
    <trip id="7" depart="83.09" from="700236093" to="624481020#4" type="passenger"/>
    <trip id="8" depart="86.91" from="-23015831" to="700440131" type="passenger"/>
    <trip id="9" depart="101.83" from="-624481020#3" to="150041579#0" type="passenger"/>
    <trip id="10" depart="102.91" from="378479743#6" to="116556686#1" type="passenger"/>
    <trip id="11" depart="111.84" from="-150032770#5" to="700236093" type="passenger"/>
    <trip id="12" depart="127.22" from="-4195580#0" to="-4195580#2" type="passenger"/>
    <trip id="13" depart="130.89" from="59591195#1" to="-715835444#2" type="passenger"/>
    <trip id="14" depart="156.41" from="700440131" to="4195580#2" type="passenger"/>
    <trip id="15" depart="162.07" from="-700440130#1" to="-1265069360#0" type="passenger"/>
    <trip id="16" depart="163.91" from="715835444#4" to="-196656222#1" type="passenger"/>
    <trip id="17" depart="164.07" from="43135644#0" to="150041594#0" type="passenger"/>
    <trip id="18" depart="181.98" from="506013711#1" to="4195580#0" type="passenger"/>
    <trip id="19" depart="189.69" from="4144040#0" to="150041594#0" type="passenger"/>
    <trip id="20" depart="192.97" from="56163443#1" to="-196656222#2" type="passenger"/>
    <trip id="21" depart="205.01" from="-53207957" to="4195580#0" type="passenger"/>
    <trip id="22" depart="205.61" from="-715835444#2" to="35574708#1" type="passenger"/>
    <trip id="23" depart="205.64" from="150041594#0" to="23248109#0" type="passenger"/>
    <trip id="24" depart="207.24" from="150041551#0" to="44973978" type="passenger"/>
    <trip id="25" depart="229.48" from="-881694399" to="4195580#2" type="passenger"/>
    <trip id="26" depart="237.64" from="-700440130#0" to="-60263960" type="passenger"/>
    <trip id="27" depart="239.54" from="-378479743#0" to="-4144040#4" type="passenger"/>
    <trip id="28" depart="240.64" from="-378479743#0" to="23248109#0" type="passenger"/>
    <trip id="29" depart="241.23" from="506015829#1" to="-4144040#3" type="passenger"/>
    <trip id="30" depart="248.49" from="-484022097" to="150041593" type="passenger"/>
    <trip id="31" depart="249.49" from="449551311" to="75392301#1" type="passenger"/>
    <trip id="32" depart="260.01" from="23248109#1" to="-689912267#0" type="passenger"/>
    <trip id="33" depart="262.40" from="-23508141#0" to="-4144040#4" type="passenger"/>
    <trip id="34" depart="263.15" from="-56163443#3" to="-4144040#2" type="passenger"/>
    <trip id="35" depart="271.75" from="-150032770#0" to="23248109#0" type="passenger"/>
    <trip id="36" depart="276.41" from="-700440130#1" to="75392301#1" type="passenger"/>
    <trip id="37" depart="278.04" from="24509268" to="4195580#1" type="passenger"/>
    <trip id="38" depart="280.00" from="-378479743#1" to="700440130#0" type="passenger"/>
    <trip id="39" depart="284.34" from="196656222#1" to="700440130#1" type="passenger"/>
    <trip id="40" depart="284.82" from="378479743#0" to="150041579#2" type="passenger"/>
    <trip id="41" depart="290.94" from="150041565" to="-4144040#3" type="passenger"/>
    <trip id="42" depart="292.68" from="-150041551#3" to="715835444#3" type="passenger"/>
    <trip id="43" depart="297.62" from="150041594#0" to="624481020#2" type="passenger"/>
    <trip id="44" depart="298.18" from="150032770#1" to="-182982119#1" type="passenger"/>
    <trip id="45" depart="300.50" from="395456769#0" to="-150041551#1" type="passenger"/>
    <trip id="46" depart="322.61" from="-378479743#5" to="23508142#1" type="passenger"/>
    <trip id="47" depart="326.89" from="-715835444#1" to="E2" type="passenger"/>
    <trip id="48" depart="335.63" from="-378479743#0" to="492925920#1" type="passenger"/>
    <trip id="49" depart="335.71" from="378479743#6" to="53207959#3" type="passenger"/>
    <trip id="50" depart="347.20" from="-56163443#3" to="214812788#2" type="passenger"/>
    <trip id="51" depart="372.59" from="150041579#0" to="150041551#0" type="passenger"/>
    <trip id="52" depart="378.76" from="700440128" to="E2" type="passenger"/>
    <trip id="53" depart="379.95" from="-715835444#1" to="378479743#5" type="passenger"/>
    <trip id="54" depart="383.60" from="378479743#6" to="449551311" type="passenger"/>
    <trip id="55" depart="396.18" from="715835444#4" to="-4195580#2" type="passenger"/>
    <trip id="56" depart="397.33" from="-4295817#3" to="4019053#2" type="passenger"/>
    <trip id="57" depart="413.95" from="-4144040#1" to="-4144040#1" type="passenger"/>
    <trip id="58" depart="421.61" from="-196656222#1" to="-1265069358#1" type="passenger"/>
    <trip id="59" depart="432.40" from="150041579#0" to="378479743#0" type="passenger"/>
    <trip id="60" depart="435.59" from="-70205228#1" to="-484022097" type="passenger"/>
    <trip id="61" depart="438.67" from="4295817#1" to="4195580#2" type="passenger"/>
    <trip id="62" depart="442.48" from="150041579#0" to="4195580#0" type="passenger"/>
    <trip id="63" depart="447.74" from="70205228#2" to="53207959#3" type="passenger"/>
    <trip id="64" depart="449.49" from="395456768" to="4019053#2" type="passenger"/>
    <trip id="65" depart="456.32" from="715835444#2" to="150032770#2" type="passenger"/>
    <trip id="66" depart="458.98" from="23508224" to="395456768" type="passenger"/>
    <trip id="67" depart="469.38" from="700440148" to="624481020#2" type="passenger"/>
    <trip id="68" depart="469.88" from="-196656222#0" to="-378479743#6" type="passenger"/>
    <trip id="69" depart="472.42" from="-715835444#2" to="484022097" type="passenger"/>
    <trip id="70" depart="497.19" from="378479740#1" to="-700440128" type="passenger"/>
    <trip id="71" depart="510.38" from="-378479743#1" to="4195580#0" type="passenger"/>
    <trip id="72" depart="517.92" from="4195610#2" to="715835444#3" type="passenger"/>
    <trip id="73" depart="521.75" from="214812786" to="182982119#0" type="passenger"/>
    <trip id="74" depart="522.10" from="-196656222#2" to="-150032770#6" type="passenger"/>
    <trip id="75" depart="522.29" from="150041551#1" to="-70205228#1" type="passenger"/>
    <trip id="76" depart="525.09" from="-689912267#0" to="-196656222#2" type="passenger"/>
    <trip id="77" depart="541.92" from="73372559" to="689912267#0" type="passenger"/>
    <trip id="78" depart="546.94" from="378479743#0" to="715835444#5" type="passenger"/>
    <trip id="79" depart="555.79" from="E3" to="4144040#2" type="passenger"/>
    <trip id="80" depart="566.21" from="-700440130#0" to="-150032770#6" type="passenger"/>
    <trip id="81" depart="571.71" from="506013711#1" to="150041579#2" type="passenger"/>
    <trip id="82" depart="574.50" from="4144040#1" to="70205228#0" type="passenger"/>
    <trip id="83" depart="585.45" from="-4195580#0" to="35574708#1" type="passenger"/>
    <trip id="84" depart="603.32" from="395456769#1" to="182982119#0" type="passenger"/>
    <trip id="85" depart="604.30" from="-23248109#0" to="-715835444#4" type="passenger"/>
    <trip id="86" depart="606.60" from="-881694399" to="4144040#1" type="passenger"/>
    <trip id="87" depart="624.36" from="700440128" to="-715835444#1" type="passenger"/>
    <trip id="88" depart="633.33" from="4195610#0" to="-700440128" type="passenger"/>
    <trip id="89" depart="634.72" from="715835444#4" to="60263960" type="passenger"/>
    <trip id="90" depart="644.74" from="24509268" to="150041551#2" type="passenger"/>
    <trip id="91" depart="651.19" from="-715835444#3" to="-70205228#1" type="passenger"/>
    <trip id="92" depart="653.84" from="75392301#0" to="1290085526#0" type="passenger"/>
    <trip id="93" depart="661.28" from="23015831" to="E0" type="passenger"/>
    <trip id="94" depart="661.66" from="4144040#2" to="23508141#0" type="passenger"/>
    <trip id="95" depart="676.70" from="150032770#5" to="-4144040#3" type="passenger"/>
    <trip id="96" depart="695.08" from="1265069358#1" to="492925919" type="passenger"/>
    <trip id="97" depart="725.37" from="395456768" to="492925920#1" type="passenger"/>
    <trip id="98" depart="731.36" from="-4295817#1" to="23508141#1" type="passenger"/>
    <trip id="99" depart="751.63" from="70205228#2" to="150032770#6" type="passenger"/>
    <trip id="100" depart="778.07" from="4195610#2" to="-23508141#1" type="passenger"/>
    <trip id="101" depart="779.73" from="75392301#1" to="378479743#2" type="passenger"/>
    <trip id="102" depart="784.23" from="-624481020#3" to="-378479743#5" type="passenger"/>
    <trip id="103" depart="787.43" from="24509268" to="23508141#1" type="passenger"/>
    <trip id="104" depart="807.49" from="-23248109#0" to="E2" type="passenger"/>
    <trip id="105" depart="812.74" from="70205228#0" to="150041578" type="passenger"/>
    <trip id="106" depart="814.49" from="-378479743#0" to="624481020#4" type="passenger"/>
    <trip id="107" depart="816.18" from="196656222#2" to="4295817#0" type="passenger"/>
    <trip id="108" depart="833.70" from="214812788#2" to="-624481020#3" type="passenger"/>
    <trip id="109" depart="836.47" from="689912267#0" to="881694399" type="passenger"/>
    <trip id="110" depart="847.60" from="-624481020#3" to="23508141#1" type="passenger"/>
    <trip id="111" depart="858.98" from="1290085526#0" to="70205228#2" type="passenger"/>
    <trip id="112" depart="860.13" from="214812788#2" to="700440131" type="passenger"/>
    <trip id="113" depart="866.42" from="700440129" to="-624481020#4" type="passenger"/>
    <trip id="114" depart="867.02" from="56163443#1" to="150032770#0" type="passenger"/>
    <trip id="115" depart="870.54" from="715835444#2" to="196656222#1" type="passenger"/>
    <trip id="116" depart="873.59" from="624481020#1" to="-689912267#0" type="passenger"/>
    <trip id="117" depart="875.91" from="-70205228#2" to="378479740#1" type="passenger"/>
    <trip id="118" depart="877.02" from="E3" to="150041594#0" type="passenger"/>
    <trip id="119" depart="881.69" from="-378479743#5" to="23248109#1" type="passenger"/>
    <trip id="120" depart="896.29" from="116556686#1" to="23508141#1" type="passenger"/>
    <trip id="121" depart="898.30" from="23508142#0" to="150041551#2" type="passenger"/>
    <trip id="122" depart="899.92" from="-715835444#4" to="-4144040#3" type="passenger"/>
    <trip id="123" depart="911.85" from="4195610#2" to="24509268" type="passenger"/>
    <trip id="124" depart="913.31" from="-624481020#1" to="506015829#1" type="passenger"/>
    <trip id="125" depart="914.57" from="-150041551#0" to="44973978" type="passenger"/>
    <trip id="126" depart="947.99" from="4295817#0" to="60263960" type="passenger"/>
    <trip id="127" depart="952.83" from="1290085526#0" to="4019053#2" type="passenger"/>
    <trip id="128" depart="953.54" from="624481020#1" to="881694399" type="passenger"/>
    <trip id="129" depart="960.54" from="196656222#2" to="-150032770#5" type="passenger"/>
    <trip id="130" depart="962.51" from="214812786" to="378479740#1" type="passenger"/>
    <trip id="131" depart="968.42" from="700440130#0" to="700440130#1" type="passenger"/>
    <trip id="132" depart="974.63" from="150041565" to="23015831" type="passenger"/>
    <trip id="133" depart="977.21" from="150041579#2" to="4295817#1" type="passenger"/>
    <trip id="134" depart="979.57" from="150032770#2" to="395456769#1" type="passenger"/>
    <trip id="135" depart="994.58" from="-378479743#6" to="150041579#2" type="passenger"/>
    <trip id="136" depart="1000.06" from="75392301#0" to="-715835444#2" type="passenger"/>
    <trip id="137" depart="1002.38" from="4195610#0" to="395456769#0" type="passenger"/>
    <trip id="138" depart="1015.93" from="700236093" to="700236093" type="passenger"/>
    <trip id="139" depart="1020.55" from="700440128" to="116556688" type="passenger"/>
    <trip id="140" depart="1022.44" from="-715835444#3" to="4295817#0" type="passenger"/>
    <trip id="141" depart="1029.71" from="506013711#1" to="700440130#1" type="passenger"/>
    <trip id="142" depart="1033.62" from="-150032770#6" to="-150041594#1" type="passenger"/>
    <trip id="143" depart="1049.24" from="395456769#0" to="70205228#1" type="passenger"/>
    <trip id="144" depart="1069.07" from="E3" to="44973978" type="passenger"/>
    <trip id="145" depart="1081.08" from="150041551#2" to="-23015831" type="passenger"/>
    <trip id="146" depart="1083.50" from="395456769#1" to="700440130#1" type="passenger"/>
    <trip id="147" depart="1086.22" from="150041565" to="4195580#1" type="passenger"/>
    <trip id="148" depart="1092.01" from="700440139" to="-150041551#0" type="passenger"/>
    <trip id="149" depart="1092.07" from="59591195#1" to="-700440129" type="passenger"/>
    <trip id="150" depart="1093.64" from="1290085525#0" to="-378479743#3" type="passenger"/>
    <trip id="151" depart="1105.59" from="23508141#0" to="23508224" type="passenger"/>
    <trip id="152" depart="1115.17" from="56163443#1" to="-4144040#0" type="passenger"/>
    <trip id="153" depart="1117.93" from="-196656222#2" to="700440130#0" type="passenger"/>
    <trip id="154" depart="1126.94" from="38115188" to="-53207957" type="passenger"/>
    <trip id="155" depart="1133.57" from="70205228#0" to="-378479743#2" type="passenger"/>
    <trip id="156" depart="1135.97" from="150041580" to="-60263960" type="passenger"/>
    <trip id="157" depart="1138.02" from="-689912267#0" to="-1265069360#0" type="passenger"/>
    <trip id="158" depart="1138.16" from="59591195#2" to="700440139" type="passenger"/>
    <trip id="159" depart="1139.29" from="4195580#0" to="-378479743#5" type="passenger"/>
    <trip id="160" depart="1139.80" from="150041565" to="-715835444#3" type="passenger"/>
    <trip id="161" depart="1141.26" from="378479743#2" to="38115188" type="passenger"/>
    <trip id="162" depart="1143.07" from="150041551#0" to="-56163443#3" type="passenger"/>
    <trip id="163" depart="1167.55" from="700236092#1" to="-4195580#0" type="passenger"/>
    <trip id="164" depart="1175.74" from="1290085526#0" to="150041593" type="passenger"/>
    <trip id="165" depart="1211.72" from="-624481020#1" to="24509268" type="passenger"/>
    <trip id="166" depart="1215.58" from="378479743#0" to="E2" type="passenger"/>
    <trip id="167" depart="1228.95" from="-70205228#2" to="881694399" type="passenger"/>
    <trip id="168" depart="1230.86" from="4144040#2" to="-624481020#4" type="passenger"/>
    <trip id="169" depart="1232.04" from="35574708#1" to="4144040#4" type="passenger"/>
    <trip id="170" depart="1235.57" from="492925920#0" to="-150041551#0" type="passenger"/>
    <trip id="171" depart="1239.22" from="378479743#6" to="182982119#0" type="passenger"/>
    <trip id="172" depart="1259.12" from="700440139" to="-700440128" type="passenger"/>
    <trip id="173" depart="1263.00" from="59591195#1" to="378479743#2" type="passenger"/>
    <trip id="174" depart="1266.44" from="116556688" to="378479753" type="passenger"/>
    <trip id="175" depart="1271.93" from="38115188" to="4144040#3" type="passenger"/>
    <trip id="176" depart="1274.91" from="43135644#0" to="395456769#1" type="passenger"/>
    <trip id="177" depart="1278.00" from="689912267#0" to="378479743#6" type="passenger"/>
    <trip id="178" depart="1284.24" from="700440139" to="395456768" type="passenger"/>
    <trip id="179" depart="1295.40" from="-715835444#2" to="150032770#6" type="passenger"/>
    <trip id="180" depart="1295.54" from="378479743#1" to="43135644#0" type="passenger"/>
    <trip id="181" depart="1327.61" from="-23248109#0" to="-700440129" type="passenger"/>
    <trip id="182" depart="1328.98" from="492925920#0" to="-4144040#1" type="passenger"/>
    <trip id="183" depart="1338.90" from="-378479743#2" to="23248109#1" type="passenger"/>
    <trip id="184" depart="1356.61" from="75392301#0" to="23248109#0" type="passenger"/>
    <trip id="185" depart="1372.71" from="70205228#0" to="624481020#4" type="passenger"/>
    <trip id="186" depart="1375.41" from="-700440128" to="624481020#2" type="passenger"/>
    <trip id="187" depart="1378.83" from="182982119#0" to="59591195#2" type="passenger"/>
    <trip id="188" depart="1397.91" from="492925920#0" to="-715835444#2" type="passenger"/>
    <trip id="189" depart="1415.49" from="-23508224" to="73372559" type="passenger"/>
    <trip id="190" depart="1422.44" from="-378479743#4" to="75392301#0" type="passenger"/>
    <trip id="191" depart="1429.14" from="700440128" to="4295817#1" type="passenger"/>
    <trip id="192" depart="1432.48" from="881694399" to="75392301#0" type="passenger"/>
    <trip id="193" depart="1433.42" from="59591195#2" to="103958941#0" type="passenger"/>
    <trip id="194" depart="1440.64" from="56163443#1" to="-1290085526#1" type="passenger"/>
    <trip id="195" depart="1481.52" from="23508141#1" to="150041551#2" type="passenger"/>
    <trip id="196" depart="1486.20" from="4195580#0" to="4144040#2" type="passenger"/>
    <trip id="197" depart="1494.62" from="378479743#2" to="624481020#2" type="passenger"/>
    <trip id="198" depart="1510.93" from="715835444#3" to="-23248109#1" type="passenger"/>
    <trip id="199" depart="1516.38" from="-624481020#1" to="-150032770#1" type="passenger"/>
    <trip id="200" depart="1517.40" from="700440134" to="23508142#1" type="passenger"/>
    <trip id="201" depart="1531.68" from="70205228#0" to="-4295817#1" type="passenger"/>
    <trip id="202" depart="1550.52" from="-182982119#1" to="624481020#2" type="passenger"/>
    <trip id="203" depart="1552.03" from="700440148" to="-700440130#1" type="passenger"/>
    <trip id="204" depart="1552.26" from="150032770#2" to="-378479743#2" type="passenger"/>
    <trip id="205" depart="1552.32" from="715835444#4" to="-700440130#1" type="passenger"/>
    <trip id="206" depart="1563.76" from="196656222#1" to="-23015831" type="passenger"/>
    <trip id="207" depart="1572.44" from="700440134" to="-378479743#1" type="passenger"/>
    <trip id="208" depart="1577.76" from="150041579#0" to="4144040#2" type="passenger"/>
    <trip id="209" depart="1592.38" from="492925919" to="715835444#4" type="passenger"/>
    <trip id="210" depart="1599.95" from="150032770#6" to="449551311" type="passenger"/>
    <trip id="211" depart="1613.71" from="-378479743#6" to="150032770#0" type="passenger"/>
    <trip id="212" depart="1621.70" from="-23248109#1" to="150041594#0" type="passenger"/>
    <trip id="213" depart="1624.31" from="150032770#2" to="715835444#5" type="passenger"/>
    <trip id="214" depart="1632.27" from="-150032770#5" to="103958941#2" type="passenger"/>
    <trip id="215" depart="1634.50" from="150041565" to="715835444#5" type="passenger"/>
    <trip id="216" depart="1635.21" from="700236093" to="-23015831" type="passenger"/>
    <trip id="217" depart="1636.93" from="4195580#2" to="23508141#0" type="passenger"/>
    <trip id="218" depart="1637.60" from="881694399" to="-881694399" type="passenger"/>
    <trip id="219" depart="1643.49" from="150032770#0" to="-4144040#3" type="passenger"/>
    <trip id="220" depart="1648.83" from="-378479743#0" to="700236092#1" type="passenger"/>
    <trip id="221" depart="1653.31" from="150041579#0" to="4019053#2" type="passenger"/>
    <trip id="222" depart="1664.58" from="4019053#2" to="378479743#0" type="passenger"/>
    <trip id="223" depart="1669.06" from="-150032770#1" to="53207959#1" type="passenger"/>
    <trip id="224" depart="1672.25" from="-624481020#3" to="-23508224" type="passenger"/>
    <trip id="225" depart="1697.95" from="35574708#1" to="-150041594#1" type="passenger"/>
    <trip id="226" depart="1703.56" from="506015829#1" to="-4195580#2" type="passenger"/>
    <trip id="227" depart="1716.01" from="-484022097" to="700440130#0" type="passenger"/>
    <trip id="228" depart="1718.37" from="-881694399" to="-378479743#3" type="passenger"/>
    <trip id="229" depart="1720.82" from="700440139" to="-1265069358#1" type="passenger"/>
    <trip id="230" depart="1722.41" from="700440128" to="-378479743#2" type="passenger"/>
    <trip id="231" depart="1729.27" from="-378479743#2" to="-56163443#3" type="passenger"/>
    <trip id="232" depart="1731.68" from="-4144040#4" to="4019053#2" type="passenger"/>
    <trip id="233" depart="1732.32" from="-150032770#2" to="-1290085526#1" type="passenger"/>
    <trip id="234" depart="1734.05" from="56163443#1" to="-51873805" type="passenger"/>
    <trip id="235" depart="1734.10" from="-715835444#5" to="-4144040#1" type="passenger"/>
    <trip id="236" depart="1747.32" from="-150041551#3" to="449551311" type="passenger"/>
    <trip id="237" depart="1754.10" from="23248109#1" to="44973978" type="passenger"/>
    <trip id="238" depart="1754.87" from="150041594#0" to="53207959#0" type="passenger"/>
    <trip id="239" depart="1760.73" from="23015831" to="-23248109#1" type="passenger"/>
    <trip id="240" depart="1765.36" from="214812786" to="715835444#4" type="passenger"/>
    <trip id="241" depart="1766.41" from="-150041551#0" to="53207959#1" type="passenger"/>
    <trip id="242" depart="1780.81" from="700440130#0" to="214812788#2" type="passenger"/>
    <trip id="243" depart="1786.52" from="150041579#2" to="73372559" type="passenger"/>
    <trip id="244" depart="1787.65" from="-150041594#1" to="150041580" type="passenger"/>
    <trip id="245" depart="1794.49" from="150032770#1" to="4144040#4" type="passenger"/>
    <trip id="246" depart="1794.61" from="196656222#1" to="700440148" type="passenger"/>
    <trip id="247" depart="1801.26" from="-196656222#1" to="-196656222#0" type="passenger"/>
    <trip id="248" depart="1809.93" from="378479743#6" to="-150041565" type="passenger"/>
    <trip id="249" depart="1811.55" from="-700440130#1" to="378479753" type="passenger"/>
    <trip id="250" depart="1815.77" from="23508224" to="-70205228#2" type="passenger"/>
    <trip id="251" depart="1839.92" from="E3" to="23015831" type="passenger"/>
    <trip id="252" depart="1843.62" from="150041579#0" to="378479743#2" type="passenger"/>
    <trip id="253" depart="1849.32" from="-23248109#1" to="4195580#2" type="passenger"/>
    <trip id="254" depart="1858.29" from="700236093" to="395456769#0" type="passenger"/>
    <trip id="255" depart="1863.71" from="51873805" to="4295817#1" type="passenger"/>
    <trip id="256" depart="1877.09" from="-484022097" to="150041551#1" type="passenger"/>
    <trip id="257" depart="1891.37" from="-60263960" to="-715835444#2" type="passenger"/>
    <trip id="258" depart="1893.44" from="150041579#0" to="150032770#0" type="passenger"/>
    <trip id="259" depart="1894.00" from="-23248109#1" to="150032770#2" type="passenger"/>
    <trip id="260" depart="1903.19" from="4144040#3" to="103958941#2" type="passenger"/>
    <trip id="261" depart="1904.00" from="-378479743#6" to="70205228#2" type="passenger"/>
    <trip id="262" depart="1904.36" from="-196656222#0" to="624481020#4" type="passenger"/>
    <trip id="263" depart="1912.75" from="-23248109#0" to="-23015831" type="passenger"/>
    <trip id="264" depart="1917.64" from="484022097" to="60263960" type="passenger"/>
    <trip id="265" depart="1936.91" from="254075881#1" to="35574708#1" type="passenger"/>
    <trip id="266" depart="1938.09" from="35574708#1" to="-715835444#1" type="passenger"/>
    <trip id="267" depart="1946.71" from="-378479743#1" to="-715835444#5" type="passenger"/>
    <trip id="268" depart="1946.91" from="4144040#3" to="484022097" type="passenger"/>
    <trip id="269" depart="1952.30" from="700440130#0" to="4295817#1" type="passenger"/>
    <trip id="270" depart="1953.08" from="75392301#0" to="378479743#1" type="passenger"/>
    <trip id="271" depart="1971.53" from="116556688" to="254075881#1" type="passenger"/>
    <trip id="272" depart="1984.91" from="-484022097" to="395456769#1" type="passenger"/>
    <trip id="273" depart="1989.88" from="-56163443#3" to="-23248109#1" type="passenger"/>
    <trip id="274" depart="1999.36" from="700236092#1" to="103958941#0" type="passenger"/>
    <trip id="275" depart="2001.27" from="506015829#1" to="24509268" type="passenger"/>
    <trip id="276" depart="2044.15" from="60263960" to="700236092#1" type="passenger"/>
    <trip id="277" depart="2050.92" from="75392301#1" to="624481020#1" type="passenger"/>
    <trip id="278" depart="2072.43" from="378479753" to="395456768" type="passenger"/>
    <trip id="279" depart="2079.43" from="-150032770#2" to="715835444#1" type="passenger"/>
    <trip id="280" depart="2080.04" from="624481020#4" to="-624481020#1" type="passenger"/>
    <trip id="281" depart="2087.68" from="-4195580#0" to="4195580#2" type="passenger"/>
    <trip id="282" depart="2094.75" from="-715835444#2" to="-715835444#2" type="passenger"/>
    <trip id="283" depart="2111.40" from="-1290085526#1" to="700440130#0" type="passenger"/>
    <trip id="284" depart="2121.55" from="35574708#1" to="1290085525#1" type="passenger"/>
    <trip id="285" depart="2129.25" from="-378479743#4" to="378479753" type="passenger"/>
    <trip id="286" depart="2161.61" from="-150032770#5" to="44973978" type="passenger"/>
    <trip id="287" depart="2166.10" from="-484022097" to="150032770#1" type="passenger"/>
    <trip id="288" depart="2175.53" from="103958941#2" to="103958941#2" type="passenger"/>
    <trip id="289" depart="2187.85" from="43135644#0" to="53207959#0" type="passenger"/>
    <trip id="290" depart="2188.00" from="378479740#1" to="-196656222#1" type="passenger"/>
    <trip id="291" depart="2196.09" from="-150041551#3" to="-378479743#5" type="passenger"/>
    <trip id="292" depart="2196.38" from="38115188" to="4144040#2" type="passenger"/>
    <trip id="293" depart="2199.53" from="-700440130#0" to="4019053#2" type="passenger"/>
    <trip id="294" depart="2205.20" from="196656222#0" to="150041551#0" type="passenger"/>
    <trip id="295" depart="2207.42" from="-700440130#1" to="492925919" type="passenger"/>
    <trip id="296" depart="2209.93" from="-23508224" to="150032770#2" type="passenger"/>
    <trip id="297" depart="2212.55" from="-700440136" to="4144040#3" type="passenger"/>
    <trip id="298" depart="2214.89" from="196656222#0" to="4144040#1" type="passenger"/>
    <trip id="299" depart="2222.07" from="-150041551#1" to="1290085525#0" type="passenger"/>
    <trip id="300" depart="2225.41" from="378479743#4" to="-1265069360#0" type="passenger"/>
    <trip id="301" depart="2233.13" from="-715835444#1" to="-4195580#2" type="passenger"/>
    <trip id="302" depart="2234.22" from="-378479743#3" to="-60263960" type="passenger"/>
    <trip id="303" depart="2236.42" from="-881694399" to="-1265069360#0" type="passenger"/>
    <trip id="304" depart="2244.31" from="492925920#0" to="-4144040#1" type="passenger"/>
    <trip id="305" depart="2244.36" from="1290085525#1" to="4195580#2" type="passenger"/>
    <trip id="306" depart="2254.53" from="214812786" to="689912267#0" type="passenger"/>
    <trip id="307" depart="2261.82" from="60263960" to="-150041594#1" type="passenger"/>
    <trip id="308" depart="2266.02" from="700440129" to="-150032770#6" type="passenger"/>
    <trip id="309" depart="2268.50" from="-150032770#1" to="70205228#1" type="passenger"/>
    <trip id="310" depart="2271.40" from="700440129" to="254075881#1" type="passenger"/>
    <trip id="311" depart="2276.37" from="378479743#0" to="4195610#2" type="passenger"/>
    <trip id="312" depart="2297.87" from="150032770#6" to="-23508141#0" type="passenger"/>
    <trip id="313" depart="2298.09" from="-150032770#1" to="-70205228#2" type="passenger"/>
    <trip id="314" depart="2306.55" from="59591195#2" to="378479743#4" type="passenger"/>
    <trip id="315" depart="2310.84" from="624481020#4" to="70205228#1" type="passenger"/>
    <trip id="316" depart="2311.38" from="-23015831" to="700236092#1" type="passenger"/>
    <trip id="317" depart="2315.06" from="-624481020#3" to="378479740#1" type="passenger"/>
    <trip id="318" depart="2323.66" from="23248109#1" to="1290085525#0" type="passenger"/>
    <trip id="319" depart="2333.21" from="-715835444#2" to="-715835444#2" type="passenger"/>
    <trip id="320" depart="2338.51" from="-881694399" to="-4144040#0" type="passenger"/>
    <trip id="321" depart="2357.53" from="214812788#2" to="-23508141#0" type="passenger"/>
    <trip id="322" depart="2358.45" from="214812788#2" to="700440148" type="passenger"/>
    <trip id="323" depart="2370.58" from="116556686#1" to="4295817#3" type="passenger"/>
    <trip id="324" depart="2371.49" from="624481020#1" to="60263960" type="passenger"/>
    <trip id="325" depart="2375.90" from="-624481020#1" to="-378479743#3" type="passenger"/>
    <trip id="326" depart="2378.21" from="-4295817#0" to="378479743#1" type="passenger"/>
    <trip id="327" depart="2385.95" from="506013711#1" to="395456769#1" type="passenger"/>
    <trip id="328" depart="2410.37" from="-4144040#4" to="506015829#1" type="passenger"/>
    <trip id="329" depart="2418.50" from="196656222#1" to="492925919" type="passenger"/>