<?xml version="1.0" encoding="UTF-8"?>

<!-- generated on 2024-10-26 10:33:02.665921 by randomTrips.py UNKNOWN
<configuration>
    <net-file value="/opt/homebrew/opt/sumo/share/sumo/tools/2024-10-08-17-29-51/241026/241026_A035.net.xml"/>
    <route-file value="241026_2_random_route_pedestrian.rou.xml"/>
    <pedestrians value="True"/>
    <prefix value="pedestrian"/>
    <verbose value="True"/>
    <insertion-density value="70.0"/>
    <random-depart value="True"/>
</configuration>
-->

<routes xmlns:xsi="http://www.w3.org/2001/XMLSchema-instance" xsi:noNamespaceSchemaLocation="http://sumo.dlr.de/xsd/routes_file.xsd">
    <person id="pedestrian0" depart="1.59">
        <walk from="624481020#0" to="286646440"/>
    </person>
    <person id="pedestrian1" depart="2.52">
        <walk from="150032863#0" to="22938316#0"/>
    </person>
    <person id="pedestrian2" depart="6.60">
        <walk from="539509020" to="1290085526#0"/>
    </person>
    <person id="pedestrian3" depart="10.11">
        <walk from="624481020#0" to="365216933"/>
    </person>
    <person id="pedestrian4" depart="11.82">
        <walk from="395456768" to="-966005979"/>
    </person>
    <person id="pedestrian5" depart="14.18">
        <walk from="1185258336#3" to="255729754#0"/>
    </person>
    <person id="pedestrian6" depart="21.96">
        <walk from="-359458208#1" to="23508142#0"/>
    </person>
    <person id="pedestrian7" depart="29.75">
        <walk from="-150041624#0" to="150041645#4"/>
    </person>
    <person id="pedestrian8" depart="31.40">
        <walk from="395456769#0" to="-56015406#1"/>
    </person>
    <person id="pedestrian9" depart="33.12">
        <walk from="987109589#0" to="319910923#0"/>
    </person>
    <person id="pedestrian10" depart="41.74">
        <walk from="-23401995#3" to="886404164#1"/>
    </person>
    <person id="pedestrian11" depart="50.88">
        <walk from="1162647991" to="4295817#1"/>
    </person>
    <person id="pedestrian12" depart="56.06">
        <walk from="-749484712#1" to="715910744#1"/>
    </person>
    <person id="pedestrian13" depart="57.56">
        <walk from="378491236" to="-359458213"/>
    </person>
    <person id="pedestrian14" depart="60.37">
        <walk from="150041689" to="150041636#1"/>
    </person>
    <person id="pedestrian15" depart="60.91">
        <walk from="-148061769" to="-257510647#0"/>
    </person>
    <person id="pedestrian16" depart="70.47">
        <walk from="-715910744#1" to="150032863#2"/>
    </person>
    <person id="pedestrian17" depart="76.49">
        <walk from="150032770#1" to="256105105#5"/>
    </person>
    <person id="pedestrian18" depart="77.90">
        <walk from="150041716#2" to="-715835444#4"/>
    </person>
    <person id="pedestrian19" depart="79.69">
        <walk from="257510647#1" to="-285295366"/>
    </person>
    <person id="pedestrian20" depart="79.92">
        <walk from="987109589#1" to="377601585"/>
    </person>
    <person id="pedestrian21" depart="83.24">
        <walk from="-638694840#0" to="-749484708"/>
    </person>
    <person id="pedestrian22" depart="84.32">
        <walk from="478347392#0" to="218848626#0"/>
    </person>
    <person id="pedestrian23" depart="86.84">
        <walk from="359458205" to="-638694840#0"/>
    </person>
    <person id="pedestrian24" depart="87.62">
        <walk from="459339931" to="-984768175"/>
    </person>
    <person id="pedestrian25" depart="94.65">
        <walk from="319910912" to="886547966"/>
    </person>
    <person id="pedestrian26" depart="101.41">
        <walk from="256102744" to="4295817#3"/>
    </person>
    <person id="pedestrian27" depart="102.82">
        <walk from="365216929" to="319911561"/>
    </person>
    <person id="pedestrian28" depart="105.16">
        <walk from="-1185258342" to="150032863#2"/>
    </person>
    <person id="pedestrian29" depart="105.34">
        <walk from="881694399" to="4195610#0"/>
    </person>
    <person id="pedestrian30" depart="111.47">
        <walk from="4144040#4" to="255729810"/>
    </person>
    <person id="pedestrian31" depart="115.88">
        <walk from="359458217#2" to="256102744"/>
    </person>
    <person id="pedestrian32" depart="117.58">
        <walk from="-29895520#0" to="28247397#1"/>
    </person>
    <person id="pedestrian33" depart="125.78">
        <walk from="26937083#0" to="52414187"/>
    </person>
    <person id="pedestrian34" depart="127.29">
        <walk from="-28247400#0" to="319910923#0"/>
    </person>
    <person id="pedestrian35" depart="127.41">
        <walk from="-1287285290#0" to="750168165"/>
    </person>
    <person id="pedestrian36" depart="127.79">
        <walk from="-23248109#0" to="-1185258336#4"/>
    </person>
    <person id="pedestrian37" depart="130.59">
        <walk from="-69990712" to="-28247401"/>
    </person>
    <person id="pedestrian38" depart="133.15">
        <walk from="319911562" to="1185258342"/>
    </person>
    <person id="pedestrian39" depart="147.53">
        <walk from="4144040#3" to="700440130#1"/>
    </person>
    <person id="pedestrian40" depart="151.32">
        <walk from="563896824" to="365217759"/>
    </person>
    <person id="pedestrian41" depart="151.35">
        <walk from="-150032770#6" to="-26730977#2"/>
    </person>
    <person id="pedestrian42" depart="154.25">
        <walk from="-366601856" to="-715835444#2"/>
    </person>
    <person id="pedestrian43" depart="154.96">
        <walk from="29895520#1" to="196656222#1"/>
    </person>
    <person id="pedestrian44" depart="156.65">
        <walk from="-69990712" to="-29895520#2"/>
    </person>
    <person id="pedestrian45" depart="156.72">
        <walk from="700236092#0" to="-750168165"/>
    </person>
    <person id="pedestrian46" depart="162.66">
        <walk from="-806364424" to="4144040#1"/>
    </person>
    <person id="pedestrian47" depart="163.47">
        <walk from="359458217#0" to="285188050"/>
    </person>
    <person id="pedestrian48" depart="163.49">
        <walk from="327864899" to="256105105#8"/>
    </person>
    <person id="pedestrian49" depart="164.08">
        <walk from="-359458206" to="-43206316"/>
    </person>
    <person id="pedestrian50" depart="164.19">
        <walk from="23508224" to="-4144040#1"/>
    </person>
    <person id="pedestrian51" depart="168.28">
        <walk from="886404164#0" to="-624481020#4"/>
    </person>
    <person id="pedestrian52" depart="171.07">
        <walk from="-563630394#1" to="-366601856"/>
    </person>
    <person id="pedestrian53" depart="173.09">
        <walk from="35098345" to="-700440129"/>
    </person>
    <person id="pedestrian54" depart="173.97">
        <walk from="-750168167" to="715835444#4"/>
    </person>
    <person id="pedestrian55" depart="178.56">
        <walk from="4295817#1" to="-539841923#0"/>
    </person>
    <person id="pedestrian56" depart="178.99">
        <walk from="-23508141#1" to="319910916"/>
    </person>
    <person id="pedestrian57" depart="181.86">
        <walk from="-E1.13" to="957138676#0"/>
    </person>
    <person id="pedestrian58" depart="185.01">
        <walk from="465884703#0" to="750404423"/>
    </person>
    <person id="pedestrian59" depart="186.02">
        <walk from="439271815#0" to="-572523427"/>
    </person>
    <person id="pedestrian60" depart="186.77">
        <walk from="-563630394#1" to="359458208#1"/>
    </person>
    <person id="pedestrian61" depart="188.17">
        <walk from="-750168166#1" to="148061776#0"/>
    </person>
    <person id="pedestrian62" depart="189.32">
        <walk from="-478347392#0" to="150032866"/>
    </person>
    <person id="pedestrian63" depart="192.05">
        <walk from="-359458219" to="22938316#1"/>
    </person>
    <person id="pedestrian64" depart="195.68">
        <walk from="715835444#3" to="327864903#1"/>
    </person>
    <person id="pedestrian65" depart="200.94">
        <walk from="-257510647#0" to="257510648"/>
    </person>
    <person id="pedestrian66" depart="205.23">
        <walk from="256102746#1" to="-4295817#3"/>
    </person>
    <person id="pedestrian67" depart="205.46">
        <walk from="319910910#0" to="218848625#1"/>
    </person>
    <person id="pedestrian68" depart="205.50">
        <walk from="283117346#0" to="-149518804#2"/>
    </person>
    <person id="pedestrian69" depart="207.06">
        <walk from="1185258343" to="359458213"/>
    </person>
    <person id="pedestrian70" depart="207.43">
        <walk from="-182982119#1" to="4144040#1"/>
    </person>
    <person id="pedestrian71" depart="210.06">
        <walk from="-1153038902#4" to="23508141#0"/>
    </person>
    <person id="pedestrian72" depart="210.63">
        <walk from="715835444#1" to="1185258338#0"/>
    </person>
    <person id="pedestrian73" depart="213.93">
        <walk from="715835444#4" to="572523427"/>
    </person>
    <person id="pedestrian74" depart="214.21">
        <walk from="150032863#4" to="-359458216"/>
    </person>
    <person id="pedestrian75" depart="215.01">
        <walk from="881694397" to="-715802321"/>
    </person>
    <person id="pedestrian76" depart="224.87">
        <walk from="285188051#0" to="694836606"/>
    </person>
    <person id="pedestrian77" depart="229.68">
        <walk from="-150041682" to="255729754#2"/>
    </person>
    <person id="pedestrian78" depart="237.16">
        <walk from="22911004" to="359458219"/>
    </person>
    <person id="pedestrian79" depart="239.28">
        <walk from="715835444#5" to="700236092#0"/>
    </person>
    <person id="pedestrian80" depart="240.56">
        <walk from="-29895520#3" to="624481020#0"/>
    </person>
    <person id="pedestrian81" depart="241.23">
        <walk from="-29895520#3" to="700440130#0"/>
    </person>
    <person id="pedestrian82" depart="245.48">
        <walk from="E1.13" to="1162647992"/>
    </person>
    <person id="pedestrian83" depart="246.21">
        <walk from="150041624#2" to="715835444#5"/>
    </person>
    <person id="pedestrian84" depart="248.29">
        <walk from="874725445" to="700440148"/>
    </person>
    <person id="pedestrian85" depart="248.80">
        <walk from="56447699#1" to="-115485620#1"/>
    </person>
    <person id="pedestrian86" depart="249.45">
        <walk from="253230759#0" to="-23101679#0"/>
    </person>
    <person id="pedestrian87" depart="253.49">
        <walk from="957138676#2" to="-563630392#1"/>
    </person>
    <person id="pedestrian88" depart="258.19">
        <walk from="987109589#0" to="23248118"/>
    </person>
    <person id="pedestrian89" depart="258.84">
        <walk from="150041624#1" to="715910744#1"/>
    </person>
    <person id="pedestrian90" depart="260.13">
        <walk from="539841923#1" to="150032812#2"/>
    </person>
    <person id="pedestrian91" depart="262.23">
        <walk from="-359458208#0" to="-23248109#1"/>
    </person>
    <person id="pedestrian92" depart="263.17">
        <walk from="-285295366" to="150032770#2"/>
    </person>
    <person id="pedestrian93" depart="265.59">
        <walk from="-478347392#0" to="-35771743#0"/>
    </person>
    <person id="pedestrian94" depart="267.22">
        <walk from="366601855" to="4213561#1"/>
    </person>
    <person id="pedestrian95" depart="269.02">
        <walk from="253230759#0" to="378543235#0"/>
    </person>
    <person id="pedestrian96" depart="269.43">
        <walk from="-29895520#3" to="56015406#1"/>
    </person>
    <person id="pedestrian97" depart="269.87">
        <walk from="689912267#0" to="478347391"/>
    </person>
    <person id="pedestrian98" depart="271.57">
        <walk from="150041716#2" to="-150041645#4"/>
    </person>
    <person id="pedestrian99" depart="274.89">
        <walk from="31232610" to="-35771741"/>
    </person>
    <person id="pedestrian100" depart="276.27">
        <walk from="-28230108" to="-715835444#1"/>
    </person>
    <person id="pedestrian101" depart="276.76">
        <walk from="-43206409" to="-478347393"/>
    </person>
    <person id="pedestrian102" depart="277.74">
        <walk from="-4195580#2" to="378479753"/>
    </person>
    <person id="pedestrian103" depart="278.12">
        <walk from="750404423" to="-638694840#1"/>
    </person>
    <person id="pedestrian104" depart="280.36">
        <walk from="359458219" to="-1160713521"/>
    </person>
    <person id="pedestrian105" depart="280.97">
        <walk from="286646440" to="327864899"/>
    </person>
    <person id="pedestrian106" depart="284.67">
        <walk from="-150032770#6" to="-23401995#3"/>
    </person>
    <person id="pedestrian107" depart="284.98">
        <walk from="-689912267#0" to="1185258338#0"/>
    </person>
    <person id="pedestrian108" depart="285.95">
        <walk from="150041636#2" to="689756683"/>
    </person>
    <person id="pedestrian109" depart="290.82">
        <walk from="334960660" to="-69990704"/>
    </person>
    <person id="pedestrian110" depart="291.49">
        <walk from="-23401995#2" to="700440128"/>
    </person>
    <person id="pedestrian111" depart="292.17">
        <walk from="-624481020#1" to="257510648"/>
    </person>
    <person id="pedestrian112" depart="292.31">
        <walk from="-378479743#6" to="-256102748"/>
    </person>
    <person id="pedestrian113" depart="295.51">
        <walk from="-285156957" to="378479743#4"/>
    </person>
    <person id="pedestrian114" depart="297.00">
        <walk from="256105105#5" to="1244524929"/>
    </person>
    <person id="pedestrian115" depart="298.44">
        <walk from="23401995#3" to="150032863#0"/>
    </person>
    <person id="pedestrian116" depart="298.73">
        <walk from="22938316#0" to="29895520#2"/>
    </person>
    <person id="pedestrian117" depart="300.22">
        <walk from="-378479743#6" to="-43206316"/>
    </person>
    <person id="pedestrian118" depart="302.38">
        <walk from="378491236" to="563896824"/>
    </person>
    <person id="pedestrian119" depart="302.53">
        <walk from="-150041636#1" to="149518793"/>
    </person>
    <person id="pedestrian120" depart="303.60">
        <walk from="334960660" to="-150041624#3"/>
    </person>
    <person id="pedestrian121" depart="303.67">
        <walk from="24509268" to="-150032770#6"/>
    </person>
    <person id="pedestrian122" depart="306.39">
        <walk from="23401995#2" to="150041661"/>
    </person>
    <person id="pedestrian123" depart="307.96">
        <walk from="255729754#1" to="-28247400#2"/>
    </person>
    <person id="pedestrian124" depart="308.71">
        <walk from="-715835444#4" to="182982119#0"/>
    </person>
    <person id="pedestrian125" depart="314.44">
        <walk from="-23401995#1" to="-365216934"/>
    </person>
    <person id="pedestrian126" depart="318.84">
        <walk from="256102744" to="-150041689"/>
    </person>
    <person id="pedestrian127" depart="322.60">
        <walk from="150041699#1" to="439271817#2"/>
    </person>
    <person id="pedestrian128" depart="323.05">
        <walk from="149518804#2" to="150041699#2"/>
    </person>
    <person id="pedestrian129" depart="323.76">
        <walk from="150032770#0" to="-150032770#1"/>
    </person>
    <person id="pedestrian130" depart="326.31">
        <walk from="150032770#6" to="439271815#1"/>
    </person>
    <person id="pedestrian131" depart="327.89">
        <walk from="359458219" to="1162647992"/>
    </person>
    <person id="pedestrian132" depart="329.73">
        <walk from="459339931" to="378479743#2"/>
    </person>
    <person id="pedestrian133" depart="330.15">
        <walk from="255729814#0" to="-148061769"/>
    </person>
    <person id="pedestrian134" depart="332.22">
        <walk from="-750168166#0" to="-150032873"/>
    </person>
    <person id="pedestrian135" depart="332.69">
        <walk from="999293416" to="715835444#4"/>
    </person>
    <person id="pedestrian136" depart="335.22">
        <walk from="-150041551#3" to="715835444#4"/>
    </person>
    <person id="pedestrian137" depart="335.73">
        <walk from="-1287285290#0" to="1185258340#0"/>
    </person>
    <person id="pedestrian138" depart="338.42">
        <walk from="409784476" to="395456769#1"/>
    </person>
    <person id="pedestrian139" depart="347.33">
        <walk from="886547965#1" to="285188051#0"/>
    </person>
    <person id="pedestrian140" depart="347.90">
        <walk from="1287285290#0" to="987109590"/>
    </person>
    <person id="pedestrian141" depart="359.99">
        <walk from="1153020821" to="563630394#0"/>
    </person>
    <person id="pedestrian142" depart="360.99">
        <walk from="694836605" to="-999293416"/>
    </person>
    <person id="pedestrian143" depart="369.48">
        <walk from="319910923#2" to="29895520#1"/>
    </person>
    <person id="pedestrian144" depart="372.77">
        <walk from="22938316#1" to="286646440"/>
    </person>
    <person id="pedestrian145" depart="375.30">
        <walk from="-750168167" to="-327864903#0"/>
    </person>
    <person id="pedestrian146" depart="375.70">
        <walk from="22938316#0" to="218649572"/>
    </person>
    <person id="pedestrian147" depart="378.40">
        <walk from="365216934" to="-4144040#0"/>
    </person>
    <person id="pedestrian148" depart="379.19">
        <walk from="-1153038902#2" to="-1185258338#0"/>
    </person>
    <person id="pedestrian149" depart="381.04">
        <walk from="-624481020#4" to="319910912"/>
    </person>
    <person id="pedestrian150" depart="383.44">
        <walk from="23248118" to="218848626#0"/>
    </person>
    <person id="pedestrian151" depart="387.36">
        <walk from="465884704" to="-43206409"/>
    </person>
    <person id="pedestrian152" depart="389.70">
        <walk from="-750168166#1" to="-539841923#1"/>
    </person>
    <person id="pedestrian153" depart="395.18">
        <walk from="715910744#0" to="365216929"/>
    </person>
    <person id="pedestrian154" depart="396.62">
        <walk from="-23248109#1" to="439271818#0"/>
    </person>
    <person id="pedestrian155" depart="396.71">
        <walk from="1287285289" to="395456769#1"/>
    </person>
    <person id="pedestrian156" depart="397.59">
        <walk from="624481020#1" to="-1185258336#2"/>
    </person>
    <person id="pedestrian157" depart="397.87">
        <walk from="-366601856" to="-182982119#1"/>
    </person>
    <person id="pedestrian158" depart="405.78">
        <walk from="-1287285290#1" to="256102750#3"/>
    </person>
    <person id="pedestrian159" depart="406.36">
        <walk from="334960660" to="-149518798"/>
    </person>
    <person id="pedestrian160" depart="408.74">
        <walk from="377601585" to="1185258336#4"/>
    </person>
    <person id="pedestrian161" depart="411.76">
        <walk from="-4195580#2" to="-378479743#5"/>
    </person>
    <person id="pedestrian162" depart="411.96">
        <walk from="563630391" to="-150032770#0"/>
    </person>
    <person id="pedestrian163" depart="413.19">
        <walk from="150041645#4" to="-572523427"/>
    </person>
    <person id="pedestrian164" depart="420.08">
        <walk from="459339931" to="365216936#1"/>
    </person>
    <person id="pedestrian165" depart="420.34">
        <walk from="-700440130#0" to="256102750#3"/>
    </person>
    <person id="pedestrian166" depart="421.86">
        <walk from="319910910#1" to="-715802321"/>
    </person>
    <person id="pedestrian167" depart="423.88">
        <walk from="-638694840#1" to="-28247397#1"/>
    </person>
    <person id="pedestrian168" depart="424.85">
        <walk from="29895520#0" to="-409784476"/>
    </person>
    <person id="pedestrian169" depart="428.79">
        <walk from="-638694840#0" to="-150032770#5"/>
    </person>
    <person id="pedestrian170" depart="432.17">
        <walk from="750168166#0" to="58448723"/>
    </person>
    <person id="pedestrian171" depart="435.05">
        <walk from="69990712" to="28230108"/>
    </person>
    <person id="pedestrian172" depart="436.45">
        <walk from="1287285290#4" to="150041624#2"/>
    </person>
    <person id="pedestrian173" depart="438.16">
        <walk from="886404164#0" to="749484708"/>
    </person>
    <person id="pedestrian174" depart="442.66">
        <walk from="319910910#1" to="4209642"/>
    </person>
    <person id="pedestrian175" depart="443.60">
        <walk from="-700440130#0" to="1244524929"/>
    </person>
    <person id="pedestrian176" depart="446.17">
        <walk from="-28247400#1" to="-999293416"/>
    </person>
    <person id="pedestrian177" depart="447.47">
        <walk from="378491236" to="150032863#2"/>
    </person>
    <person id="pedestrian178" depart="449.09">
        <walk from="539841923#0" to="-638694840#1"/>
    </person>
    <person id="pedestrian179" depart="454.31">
        <walk from="35771743#1" to="439271815#1"/>
    </person>
    <person id="pedestrian180" depart="455.35">
        <walk from="700236092#1" to="23599727#1"/>
    </person>
    <person id="pedestrian181" depart="456.80">
        <walk from="881694399" to="23508224"/>
    </person>
    <person id="pedestrian182" depart="458.81">
        <walk from="-256102748" to="-4305021#0"/>
    </person>
    <person id="pedestrian183" depart="464.43">
        <walk from="-365216932" to="285188051#1"/>
    </person>
    <person id="pedestrian184" depart="464.62">
        <walk from="700440138" to="539509020"/>
    </person>
    <person id="pedestrian185" depart="466.20">
        <walk from="-150041699#1" to="365216929"/>
    </person>
    <person id="pedestrian186" depart="467.24">
        <walk from="-359458205" to="-50507110"/>
    </person>
    <person id="pedestrian187" depart="467.46">
        <walk from="319910912" to="256105105#3"/>
    </person>
    <person id="pedestrian188" depart="468.84">
        <walk from="563896824" to="-35771743#1"/>
    </person>
    <person id="pedestrian189" depart="469.03">
        <walk from="38115189" to="365216929"/>
    </person>
    <person id="pedestrian190" depart="469.20">
        <walk from="23510371" to="150032866"/>
    </person>
    <person id="pedestrian191" depart="470.75">
        <walk from="563630394#0" to="-715910744#1"/>
    </person>
    <person id="pedestrian192" depart="471.15">
        <walk from="797259708#1" to="-1185258336#2"/>
    </person>
    <person id="pedestrian193" depart="472.13">
        <walk from="715910744#0" to="874725445"/>
    </person>
    <person id="pedestrian194" depart="475.07">
        <walk from="-23401995#2" to="E4"/>
    </person>
    <person id="pedestrian195" depart="477.92">
        <walk from="150032866" to="-4305021#0"/>
    </person>
    <person id="pedestrian196" depart="481.01">
        <walk from="256105105#4" to="-365216934"/>
    </person>
    <person id="pedestrian197" depart="482.63">
        <walk from="700236092#1" to="23508141#1"/>
    </person>
    <person id="pedestrian198" depart="489.05">
        <walk from="4144040#3" to="1125742272"/>
    </person>
    <person id="pedestrian199" depart="494.68">
        <walk from="218848626#1" to="-886547965#0"/>
    </person>
    <person id="pedestrian200" depart="497.23">
        <walk from="-478347396#0" to="150041699#2"/>
    </person>
    <person id="pedestrian201" depart="497.23">
        <walk from="150041624#3" to="-150041716#3"/>
    </person>
    <person id="pedestrian202" depart="497.80">
        <walk from="957138676#0" to="150032842"/>
    </person>
    <person id="pedestrian203" depart="500.89">
        <walk from="50507110" to="700236092#1"/>
    </person>
    <person id="pedestrian204" depart="502.32">
        <walk from="-987109589#0" to="1207750548"/>
    </person>
    <person id="pedestrian205" depart="509.85">
        <walk from="23599727#1" to="-409784476"/>
    </person>
    <person id="pedestrian206" depart="510.99">
        <walk from="-28247399" to="-478347393"/>
    </person>
    <person id="pedestrian207" depart="512.40">
        <walk from="715835444#4" to="255729814#0"/>
    </person>
    <person id="pedestrian208" depart="517.04">
        <walk from="1244524930" to="-28247401"/>
    </person>
    <person id="pedestrian209" depart="517.55">
        <walk from="-715835444#5" to="-E1.13"/>
    </person>
    <person id="pedestrian210" depart="518.45">
        <walk from="478347396#1" to="150041636#0"/>
    </person>
    <person id="pedestrian211" depart="521.22">
        <walk from="29895517" to="319910933#0"/>
    </person>
    <person id="pedestrian212" depart="522.03">
        <walk from="-478347392#0" to="465884703#2"/>
    </person>
    <person id="pedestrian213" depart="522.51">
        <walk from="881694398" to="285156957"/>
    </person>
    <person id="pedestrian214" depart="523.72">
        <walk from="150041594#0" to="-29895519#2"/>
    </person>
    <person id="pedestrian215" depart="525.92">
        <walk from="4295817#1" to="-29895519#2"/>
    </person>
    <person id="pedestrian216" depart="525.93">
        <walk from="359458217#0" to="150041565"/>
    </person>
    <person id="pedestrian217" depart="532.69">
        <walk from="700440128" to="23101679#1"/>
    </person>
    <person id="pedestrian218" depart="535.71">
        <walk from="285156957" to="-150032770#2"/>
    </person>
    <person id="pedestrian219" depart="536.39">
        <walk from="-1287285290#1" to="539509020"/>
    </person>
    <person id="pedestrian220" depart="541.26">
        <walk from="750168164" to="31232610"/>
    </person>
    <person id="pedestrian221" depart="546.43">
        <walk from="395456769#0" to="1185258343"/>
    </person>
    <person id="pedestrian222" depart="546.98">
        <walk from="528567529" to="-4195580#0"/>
    </person>
    <person id="pedestrian223" depart="555.34">
        <walk from="35771743#1" to="-115485620#1"/>
    </person>
    <person id="pedestrian224" depart="555.85">
        <walk from="150041661" to="-987109589#1"/>
    </person>
    <person id="pedestrian225" depart="560.21">
        <walk from="257510661#2" to="30147052"/>
    </person>
    <person id="pedestrian226" depart="562.43">
        <walk from="257510661#2" to="150041551#0"/>
    </person>
    <person id="pedestrian227" depart="563.01">
        <walk from="150041565" to="-1153038902#4"/>
    </person>
    <person id="pedestrian228" depart="566.06">
        <walk from="23508141#1" to="-1162647992"/>
    </person>
    <person id="pedestrian229" depart="568.58">
        <walk from="218649572" to="-539841923#1"/>
    </person>
    <person id="pedestrian230" depart="571.89">
        <walk from="886547965#1" to="-1185258336#3"/>
    </person>
    <person id="pedestrian231" depart="574.14">
        <walk from="439273272" to="319910912"/>
    </person>
    <person id="pedestrian232" depart="579.71">
        <walk from="439271815#1" to="69990704"/>
    </person>
    <person id="pedestrian233" depart="585.00">
        <walk from="-23101679#0" to="-150041716#1"/>
    </person>
    <person id="pedestrian234" depart="586.57">
        <walk from="-28247400#1" to="-359458206"/>
    </person>
    <person id="pedestrian235" depart="596.42">
        <walk from="196656222#1" to="459339929"/>
    </person>
    <person id="pedestrian236" depart="598.90">
        <walk from="-494297578#1" to="1162647992"/>
    </person>
    <person id="pedestrian237" depart="599.90">
        <walk from="-987109589#1" to="1185258338#0"/>
    </person>
    <person id="pedestrian238" depart="603.74">
        <walk from="245221889" to="987109589#1"/>
    </person>
    <person id="pedestrian239" depart="604.22">
        <walk from="-4144040#1" to="319910923#2"/>
    </person>
    <person id="pedestrian240" depart="606.46">
        <walk from="539841922" to="286646440"/>
    </person>
    <person id="pedestrian241" depart="608.33">
        <walk from="56028463#0" to="378543238"/>
    </person>
    <person id="pedestrian242" depart="610.79">
        <walk from="-150041699#2" to="-E1.13"/>
    </person>
    <person id="pedestrian243" depart="612.35">
        <walk from="23508141#1" to="-150032770#0"/>
    </person>
    <person id="pedestrian244" depart="621.37">
        <walk from="-115485620#1" to="-29895520#1"/>
    </person>
    <person id="pedestrian245" depart="623.37">
        <walk from="150041636#0" to="13755982"/>
    </person>
    <person id="pedestrian246" depart="624.13">
        <walk from="4195610#2" to="245221889"/>
    </person>
    <person id="pedestrian247" depart="632.17">
        <walk from="56028463#0" to="-150041716#1"/>
    </person>
    <person id="pedestrian248" depart="633.55">
        <walk from="196656222#2" to="-13858853"/>
    </person>
    <person id="pedestrian249" depart="634.38">
        <walk from="-378479743#2" to="563630393"/>
    </person>
    <person id="pedestrian250" depart="634.65">
        <walk from="624481020#4" to="150032863#3"/>
    </person>
    <person id="pedestrian251" depart="641.47">
        <walk from="-148061776#0" to="-150041624#0"/>
    </person>
    <person id="pedestrian252" depart="644.53">
        <walk from="700440148" to="693072006"/>
    </person>
    <person id="pedestrian253" depart="644.80">
        <walk from="24509268" to="-1287285290#0"/>
    </person>
    <person id="pedestrian254" depart="645.23">
        <walk from="715835444#1" to="-700440128"/>
    </person>
    <person id="pedestrian255" depart="651.84">
        <walk from="847071794" to="256102746#1"/>
    </person>
    <person id="pedestrian256" depart="653.17">
        <walk from="378479743#6" to="359458208#1"/>
    </person>
    <person id="pedestrian257" depart="658.02">
        <walk from="1185258336#0" to="-150041624#2"/>
    </person>
    <person id="pedestrian258" depart="661.35">
        <walk from="-285295366" to="-4295817#1"/>
    </person>
    <person id="pedestrian259" depart="661.37">
        <walk from="484022097" to="115485617"/>
    </person>
    <person id="pedestrian260" depart="663.04">
        <walk from="689912266" to="-715910744#0"/>
    </person>
    <person id="pedestrian261" depart="663.62">
        <walk from="378491236" to="-28230108"/>