<?xml version="1.0" encoding="UTF-8"?>

<!-- generated on 2024-11-04 13:37:24.049652 by randomTrips.py UNKNOWN
<configuration>
    <net-file value="/opt/homebrew/opt/sumo/share/sumo/tools/2024-10-08-17-29-51/241104/241104.net.xml"/>
    <route-file value="241104_random_route_pedestrian.rou.xml"/>
    <pedestrians value="True"/>
    <personrides value="f_0,f_1"/>
    <persontrips value="True"/>
    <prefix value="pedestrian"/>
    <verbose value="True"/>
    <insertion-density value="70.0"/>
    <random-depart value="True"/>
</configuration>
-->

<!-- generated on 2024-11-04 13:37:23 by Eclipse SUMO duarouter Version 1.20.0
<configuration xmlns:xsi="http://www.w3.org/2001/XMLSchema-instance" xsi:noNamespaceSchemaLocation="http://sumo.dlr.de/xsd/duarouterConfiguration.xsd">

    <input>
        <net-file value="/opt/homebrew/opt/sumo/share/sumo/tools/2024-10-08-17-29-51/241104/241104.net.xml"/>
        <route-files value="trips.trips.xml"/>
    </input>

    <output>
        <output-file value="241104_random_route_pedestrian.rou.xml"/>
        <alternatives-output value="NUL"/>
    </output>

    <time>
        <begin value="0.0"/>
        <end value="3600.0"/>
    </time>

    <report>
        <verbose value="true"/>
        <ignore-errors value="true"/>
        <no-step-log value="true"/>
    </report>

</configuration>
-->

<routes xmlns:xsi="http://www.w3.org/2001/XMLSchema-instance" xsi:noNamespaceSchemaLocation="http://sumo.dlr.de/xsd/routes_file.xsd">
    <person id="pedestrian0" depart="1.22">
        <walk edges="-624481020#3 -624481020#4 689912266 255729797#1 E4 -378491236 -150041636#0 -150041636#1 -150041636#2 -150041594#1 150041624#0 -526519487 115485620#0"/>
    </person>
    <person id="pedestrian1" depart="2.66">
        <walk edges="257510648 257510647#1 E1.13 700440138 700440139 -378479743#6 -378479743#5 -378479743#4 -378479743#3 -378479743#2 -378479743#1 -378479743#0 700440131 506015829#1 E0 E3 E4 -378491236 -150041636#0 -150041636#1 -150041636#2 -150041594#1 150041624#0 -150041624#1 150041624#2 -150041624#3 43206316 -69990712 43206409 -43206409"/>
    </person>
    <person id="pedestrian2" depart="6.82">
        <walk edges="572523427 150032770#2 150032770#1 150032770#0 -327864903#0 -327864903#1 -218848625#1 -1287285290#3 -24507771 13858854 -47492539 -13858853 4195610#2 484022097 -4144040#2 -4144040#1 4195580#0 4195580#1 -285156957"/>
    </person>
    <person id="pedestrian3" depart="10.00">
        <walk edges="-715835444#5 -715835444#4 -715835444#3 -715835444#2 -715835444#1 -4195580#2 -4195580#1 -4195580#0 -4144040#1 -4144040#2 484022097 4195610#2 -13858853 -47492539 13858854 -24507771 -1287285290#3 -218848625#1 -327864903#1 -327864903#0 -150032770#0 -150032770#1 -150032770#2 -150032770#5 -150032770#6 255729814#1"/>
    </person>
    <person id="pedestrian4" depart="11.98">
        <walk edges="-700440129 1290085526#0 -150041594#1 -150041636#2 -150041636#1 -150041636#0 -378491236 E4 E3 E0 506015829#1 700440131 -378479743#0 -378479743#1 -378479743#2 -378479743#3 -23248109#1 378479753 395456769#1"/>
    </person>
    <person id="pedestrian5" depart="14.69">
        <walk edges="150041636#1 -150041636#0 -378491236 150041716#4 150041716#3"/>
    </person>
    <person id="pedestrian6" depart="21.29">
        <walk edges="150041636#1 -150041636#2 -150041594#1 150041624#0 -150041624#1 150041624#2 -150041624#3 43206316 -69990712"/>
    </person>
    <person id="pedestrian8" depart="31.29">
        <walk edges="150041682 -23248109#1 -378479743#3 -378479743#2 -378479743#1 -378479743#0 700440131 506015829#1 E0 E3 E4 150041716#4 150041716#3 -29895519#1 886547965#0"/>
    </person>
    <person id="pedestrian9" depart="33.96">
        <walk edges="-378479743#6 -378479743#5 -378479743#4 -378479743#3 -378479743#2 -378479743#1 -378479743#0 700440131 506015829#1 E0 E3 E4 150041716#4 150041716#3 -29895519#1 -886547965#0"/>
    </person>
    <person id="pedestrian10" depart="41.15">
        <walk edges="-149518804#2 -149518804#0 -984768176#1 -150032873 700236092#1 700236092#0 378479743#6 378479743#5 378479743#4 378479743#3 378479743#2 -378479743#1 -378479743#0 700440131 506015829#1 E0 E3 E4 -378491236 -150041636#0 -150041636#1 -150041636#2 -150041594#1 150041624#0 -150041624#1 150041624#2 150041624#3"/>
    </person>
    <person id="pedestrian11" depart="50.78">
        <walk edges="689756683 -23248118 -23248109#0 -23248109#1 -378479743#3 -378479743#2 -378479743#1 -378479743#0 700440131 506015829#1 E0 E3 E4 -378491236 -150041636#0 -150041636#1 -150041636#2 -150041594#1 1290085526#0 700440129 700440128 700440130#1 286497563"/>
    </person>
    <person id="pedestrian12" depart="56.12">
        <walk edges="150032863#3 150032863#2 149518802#0 149518802#1 150032842 528567529 -378479743#6 700440139 700440138 E1.13 257510647#1 -257510647#0 -559675981 256102746#0 256105105#9 -256102748 286646440 56447699#1 22938316#0"/>
    </person>
    <person id="pedestrian13" depart="57.06">
        <walk edges="539841923#0 -1287285290#3 -24507771 13858854 -47492539 -13858853 4195610#2 484022097 -4144040#2 -4144040#1 4195580#0 4195580#1 4195580#2 148061769"/>
    </person>
    <person id="pedestrian14" depart="60.08">
        <walk edges="689756683 -23248118 -23248109#0 -23248109#1 -378479743#4 -378479743#5 378479743#6 700236092#0 365217759 365217758"/>
    </person>
    <person id="pedestrian15" depart="60.10">
        <walk edges="409784476 -409784476 4195610#2 484022097 4144040#3 4144040#4 700440148 378479743#0 378479743#1 378479743#2 378479743#3 -23248109#1 -23248109#0 -23248118 689756683 -987109589#1"/>
    </person>
    <person id="pedestrian16" depart="70.60">
        <walk edges="1185258339 29895520#0 -29895519#2 -29895519#1 150041716#3 150041716#4 255729754#0 255729754#1"/>
    </person>
    <person id="pedestrian17" depart="76.48">
        <walk edges="-35771743#0 957138676#0 881694399 182982119#0 150041551#2 150041551#1 -23101679#0 -29895520#3 -1153038902#0 1153038902#2 1153038902#4 715835444#2 23508141#1"/>
    </person>
    <person id="pedestrian18" depart="77.28">
        <walk edges="-150041624#0 -150041594#1 -150041636#2 -150041636#1 -150041636#0 -378491236 E4 E3 E0 506015829#1 700440131 -378479743#0 -378479743#1 -378479743#2 -378479743#3 -23248109#1 150041682"/>
    </person>
    <person id="pedestrian19" depart="79.42">
        <walk edges="409784476 -409784476 4195610#2 484022097 4144040#3 4144040#4 700440148 378479743#0 378479743#1 378479743#2 378479743#3 -23248109#1 -23248109#0 -23248118 689756683 -638694840#1 638694840#0 4213561#1 366601855 366601856 256102750#3 -56015406#0"/>
    </person>
    <person id="pedestrian21" depart="83.28">
        <walk edges="-23401995#1 -149518804#3 -149518804#2 -149518804#0 -984768176#1 984768175"/>
    </person>
    <person id="pedestrian22" depart="84.09">
        <walk edges="1185258336#4 -1185258337 -1185258338#0 -1153038902#0 -29895520#3 -23101679#0 -150041551#1 4295817#3"/>
    </person>
    <person id="pedestrian23" depart="86.58">
        <walk edges="-750168166#0 715835444#4 -150041551#0 -150041551#1 4295817#3 750168165"/>
    </person>
    <person id="pedestrian24" depart="87.21">
        <walk edges="378543235#1 847071794 378543238 638694840#0 -638694840#1 689756683 -23248118 -23248109#0 -23248109#1 -378479743#4 -365216932"/>
    </person>
    <person id="pedestrian25" depart="101.79">
        <walk edges="150041699#1 -700440130#0 -700440130#1 -700440128 881694397 -150041624#1 150041624#0 -150041594#1 150041636#2"/>
    </person>
    <person id="pedestrian26" depart="102.56">
        <walk edges="-148061776#0 -28230108 -150041636#0 -378491236 E4 E3 E0 506015829#1 -4144040#4 4144040#3 484022097 4195610#2 -13858853 -47492539 13858854 -24507771"/>
    </person>
    <person id="pedestrian28" depart="105.33">
        <walk edges="150032812#0 -150032873 700236092#1 700236092#0 378479743#6 -378479743#6 700440139 700440138 E1.13 257510647#1 56028463#1 256105105#7"/>
    </person>
    <person id="pedestrian29" depart="111.39">
        <walk edges="150041716#3 150041716#4 -715910744#0"/>
    </person>
    <person id="pedestrian30" depart="115.46">
        <walk edges="257510647#1 E1.13 700440138 700440139 -378479743#6 -378479743#5 -378479743#4 -378479743#3 -378479743#2 -378479743#1 -378479743#0 700440131 -4144040#4 -4144040#3 -4144040#2 -285188048"/>
    </person>
    <person id="pedestrian32" depart="125.73">
        <walk edges="-689756683 -23248118 -23248109#0 -23248109#1 -378479743#3 -378479743#2 -378479743#1 -378479743#0 700440131 -4144040#4 -4144040#3 -4144040#2 -4144040#1 4195580#0 4195580#1 4195580#2 715835444#1 715835444#2 715835444#3 715835444#4 -750168166#0 750168164 -750168164"/>
    </person>
    <person id="pedestrian34" depart="127.34">
        <walk edges="334960656 334960660 -23599727#1 23599727#0 700440131 -378479743#0 -378479743#1 -378479743#2 -378479743#3 -23248109#1 -23248109#0 -23248118 -689756683"/>
    </person>
    <person id="pedestrian36" depart="130.47">
        <walk edges="319910910#0 150032863#3 150032863#2 149518802#0 149518793 365216933 -378479743#4 -23248109#1 -23248109#0 -23248118 689756683 -987109589#1 987109589#0"/>
    </person>
    <person id="pedestrian37" depart="133.35">
        <walk edges="256102746#1 256102750#1 256102749 4213557 4213561#0 4213561#1 638694840#0 -638694840#1 689756683 -23248118 -23248109#0 -23248109#1 -378479743#3 -378479743#2 -378479743#1 -378479743#0 700440131 506015829#1 E0 E3 E4 -378491236 4305021#0"/>
    </person>
    <person id="pedestrian38" depart="147.09">
        <walk edges="365216936#1 365216936#0 539841922 150032863#0 -539841923#0 -218848625#1 -327864903#1 -327864903#0 150032770#0 150032770#1 150032770#2 150032770#5 218649572 319910922 319910923#0 319910923#1 319910923#2"/>
    </person>
    <person id="pedestrian39" depart="151.61">
        <walk edges="-1185258342 1185258342 1153038902#4 -715835444#2 -23508141#0 23508142#0 150032877"/>
    </person>
    <person id="pedestrian40" depart="151.79">
        <walk edges="886547965#1 -29895519#1 150041716#3 150041716#4 715910744#0 -715910744#1 4195580#2 4195580#1 4195580#0 -4144040#1 -4144040#2 484022097 4195610#2"/>
    </person>
    <person id="pedestrian41" depart="154.32">
        <walk edges="4195580#0 -4144040#1 -4144040#2 484022097 4195610#2 -13858853 -47492539 13858854 -24507771 -1287285290#3 -218848625#1 -327864903#1 -327864903#0 -150032770#0 -150032770#1 -150032770#2 -150032770#5 -150032770#6 255729814#1"/>
    </person>
    <person id="pedestrian42" depart="154.67">
        <walk edges="365216933 149518793 149518802#1 150032842 528567529 -378479743#6 700440139 700440138 E1.13 257510647#1 -257510647#0 -559675981 256102746#1"/>
    </person>
    <person id="pedestrian43" depart="156.15">
        <walk edges="-286497563 700440130#1 700440128 700440129 1290085526#0 -150041594#1 -150041636#2 -150041636#1 -150041636#0 -378491236 E4 255729797#1 689912266 -624481020#4 -28247401 28247397#1"/>
    </person>
    <person id="pedestrian44" depart="156.80">
        <walk edges="26937083#0 257510661#2 439271818#2 439271818#0 439271817#2 700236092#1 700236092#0 378479743#6 528567529"/>
    </person>
    <person id="pedestrian45" depart="162.44">
        <walk edges="-28247397#0 4209642 700440131 -378479743#0 -378479743#1 378479743#2 378479743#3 378479743#4 378479743#5 378479743#6 700236092#0 700236092#1 -150032873 -984768176#1 -149518804#0 -149518804#2 -149518804#3 -23401995#1 -23401995#2 52414187 319910916"/>
    </person>
    <person id="pedestrian46" depart="163.14">
        <walk edges="-1287285290#1 -1287285290#0 -984768176#1 255729814#0 255729814#1 -150032770#6 150032770#5 -77706449 77706449"/>
    </person>
    <person id="pedestrian47" depart="163.84">
        <walk edges="-23101679#1 23101679#1 -29895520#3 -1153038902#0 -1185258338#0 -1185258337"/>
    </person>
    <person id="pedestrian48" depart="164.48">
        <walk edges="-700440130#0 -700440130#1 -700440128 881694397 -150041624#1 150041624#0 -150041594#1 -150041636#2 -150041636#1 -150041636#0 -378491236 E4 255729797#1 689912266 -624481020#4 -28247401 -28247397#1 -28247399"/>
    </person>
    <person id="pedestrian49" depart="164.74">
        <walk edges="319910933#1 -26730977#2 -149518804#3 -149518804#2 -149518804#0 -984768176#1 1287285290#0"/>
    </person>
    <person id="pedestrian50" depart="168.95">
        <walk edges="4195580#0 4195580#1 4195580#2 -715910744#1 715910744#0 150041716#4 150041716#3 -29895519#1 -29895519#2 715802321"/>
    </person>
    <person id="pedestrian51" depart="171.23">
        <walk edges="624481020#2 -334960656 334960660 -23599727#1 23599727#0 700440131 -378479743#0 -378479743#1 378479743#2 378479743#3 378479743#4 365216933 149518793 149518802#0 150032863#2 150032863#3 319910910#0 377601585"/>
    </person>
    <person id="pedestrian52" depart="173.81">
        <walk edges="-150032873 700236092#1 700236092#0 378479743#6 -378479743#6 700440139 700440138 E1.13 257510647#1 -257510647#0 -559675981 256102746#0 256105105#9 -256102748"/>
    </person>
    <person id="pedestrian53" depart="173.99">
        <walk edges="-378479743#2 -378479743#1 -378479743#0 700440131 -4144040#4 -4144040#3 -4144040#2 -4144040#1 -4195580#0 -4195580#1 -4195580#2 -715835444#1 -715835444#2 -715835444#3 -715835444#4"/>
    </person>
    <person id="pedestrian54" depart="178.14">
        <walk edges="29895519#2 -29895519#1 -150041716#2 150041716#1 150041594#0 1290085526#0 700440129 700440128 700440130#1 700440130#0 196656222#2 196656222#1"/>
    </person>
    <person id="pedestrian55" depart="178.50">
        <walk edges="-700440130#0 -700440130#1 -700440128 700440129 1290085526#0 150041594#0 150041716#1 -150041716#2 150041716#3 -29895517"/>
    </person>
    <person id="pedestrian56" depart="181.34">
        <walk edges="700440131 -4144040#4 -4144040#3 -4144040#2 -4144040#1 4195580#0 4195580#1 4195580#2 715835444#1 715835444#2 715835444#3 715835444#4 -750168166#0 -750168166#1"/>
    </person>
    <person id="pedestrian57" depart="185.85">
        <walk edges="-886547965#1 -29895519#1 150041716#3 150041716#4 715910744#0 -715910744#1 4195580#2 4195580#1 4195580#0 -4144040#1 -4144040#2 4144040#3"/>
    </person>
    <person id="pedestrian58" depart="186.79">
        <walk edges="365216933 378479743#4 378479743#3 378479743#2 378479743#1 378479743#0 700440148 4144040#4 4144040#3 -4144040#2 -4144040#1 4195580#0 4195580#1 285156957"/>
    </person>
    <person id="pedestrian59" depart="186.88">
        <walk edges="319911561 319910923#1 319910923#0 319910922 218649572 -150032770#6 255729814#1 255729814#0 -984768176#1 -150032873 700236092#1 700236092#0 378479743#6 -378479743#6 700440139 700440138 E1.13 257510647#1 -257510647#0 -559675981 256102746#0 256105105#9"/>
    </person>
    <person id="pedestrian60" depart="188.48">
        <walk edges="-35098345 -378479743#0 700440131 506015829#1 E0 E3 E4 -378491236 -150041636#0 -150041636#1 -150041636#2 -150041594#1 150041624#0 -150041624#1 150041624#2 -150041624#3 -43206316"/>
    </person>
    <person id="pedestrian61" depart="189.23">
        <walk edges="23508142#1 23508142#0 -23508141#0 -715835444#1 -4195580#2 -4195580#1 -4195580#0 -4144040#1 -4144040#2"/>
    </person>
    <person id="pedestrian62" depart="192.41">
        <walk edges="957138676#2 881694399 182982119#0 150041551#2 150041551#1 -23101679#0 -29895520#3 -1153038902#0 1153038902#2 1153038902#4 -715835444#2 -715835444#1 -4195580#2 -4195580#1 -640167405"/>
    </person>
    <person id="pedestrian63" depart="195.77">
        <walk edges="-624481020#1 -334960656 334960660 -23599727#1 23599727#0 700440131 -378479743#0 -378479743#1 -378479743#2"/>
    </person>
    <person id="pedestrian64" depart="200.04">
        <walk edges="327864907 218848626#1 -327864903#1 -218848625#1 -1287285290#3 -24507771 13858854 -47492539 -13858853 4195610#2 484022097 -4144040#2 -4144040#1 4195580#0 4195580#1 4195580#2 -715910744#1 715910744#0 150041716#4 150041716#3 -29895519#1 -29895519#2 -715802321"/>
    </person>
    <person id="pedestrian65" depart="205.19">
        <walk edges="-797259708#1 150032770#6 150032770#5 150032770#2 150032770#1 150032770#0 -327864903#0 -327864903#1 -218848625#1 -1287285290#3 -24507771 13858854 -47492539 -13858853 4195610#2 484022097 -4144040#2 -4144040#1 4195580#0 4195580#1 4195580#2 715910744#1"/>
    </person>
    <person id="pedestrian66" depart="205.43">
        <walk edges="4295817#3 -150041551#1 -23101679#0 -29895520#3 -1153038902#0 1153038902#2 1153038902#4 715835444#2 715835444#1 4195580#2 4195580#1 4195580#0 -4144040#1 -4144040#2 484022097 4195610#2 -13858853 -47492539 13858854 -24507771 -1287285290#3 -539841923#0"/>
    </person>
    <person id="pedestrian67" depart="205.43">
        <walk edges="-23401995#3 -23401995#2 -23401995#1 -149518804#3 -149518804#2 -149518804#0 -984768176#1 -1287285290#0 150032863#4 319910910#0 319910910#1 319910912"/>
    </person>
    <person id="pedestrian68" depart="207.15">
        <walk edges="1153038902#4 715835444#2 715835444#1 4195580#2 4195580#1 4195580#0 -4144040#1 -4144040#2 -4144040#3 -4144040#4 700440131 -378479743#0 -378479743#1 -378479743#2 -378479743#3 -23248109#1 -23248109#0 -23248118 689756683 -987109589#1 987109589#0"/>
    </person>
    <person id="pedestrian69" depart="210.57">
        <walk edges="459339931 -23599727#1 23599727#0 -4144040#4 4144040#3 484022097 4195610#2 -13858853 -47492539 13858854 -24507771 -1287285290#3 -218848625#1 874725445"/>
    </person>
    <person id="pedestrian70" depart="210.59">
        <walk edges="439271815#0 378543235#1 847071794 378543238 638694840#0 -638694840#1 689756683 -23248118 -23248109#0 -23248109#1 -378479743#3 -378479743#2 -378479743#1 -378479743#0 700440131 4209642 28247397#0 -28247397#1 -28247401 -624481020#3"/>
    </person>
    <person id="pedestrian71" depart="213.58">
        <walk edges="-624481020#1 -334960656 334960660 -23599727#1 23599727#0 506015829#1 E0 E3 E4 -378491236 -150041636#0 -150041636#1 150041661 35771743#1"/>
    </person>
    <person id="pedestrian72" depart="214.74">
        <walk edges="-77706449 150032770#5 -150032770#6 255729814#1 255729814#0 -984768176#1 -1287285290#0 150032863#4 150032863#3 150032863#2 149518802#0 149518802#1"/>
    </person>
    <person id="pedestrian74" depart="224.86">
        <walk edges="-366601856 256102750#2 256102750#1 256102750#0 -256102748 286646440 56447699#1 22938316#1"/>
    </person>
    <person id="pedestrian75" depart="229.56">
        <walk edges="715910744#1 4195580#2 4195580#1 4195580#0 -4144040#1 -4144040#2 484022097 4195610#2 -13858853 -47492539 13858854 -24507771 -1287285290#3 -218848625#1 -327864903#1 -327864903#0 150032770#0 150032770#1 150032770#2 327864898"/>
    </person>
    <person id="pedestrian76" depart="237.57">
        <walk edges="-24507771 -1287285290#3 1287285290#2 -1287285290#1 -1287285290#0 -150032873 439271817#2 439271818#0 439271818#2 257510661#2"/>
    </person>
    <person id="pedestrian77" depart="239.84">
        <walk edges="256102749 4213557 4213561#0 4213561#1 638694840#0 -638694840#1 689756683 -23248118 -23248109#0 -23248109#1 -378479743#3 -378479743#2 -378479743#1 -378479743#0 700440131 506015829#1 E0 E3 E4 -378491236 -4305021#0"/>
    </person>
    <person id="pedestrian78" depart="240.03">
        <walk edges="29895520#3 -1153038902#0 1153038902#2 1153038902#4 715835444#2 715835444#1 4195580#2 4195580#1 4195580#0 -4144040#1 -4144040#2 484022097 4195610#2 -13858853 -47492539 13858854 -24507771 -1287285290#3 218848625#1"/>
    </person>
    <person id="pedestrian79" depart="241.08">
        <walk edges="28247401 -28247397#1 28247397#0 4209642 700440131 -378479743#0 -378479743#1 378479743#2 378479743#3 378479743#4 378479743#5 378479743#6 700236092#0 700236092#1 -150032873 -984768176#1 -149518804#0 -149518804#2 -149518804#3"/>
    </person>
    <person id="pedestrian80" depart="245.09">
        <walk edges="1287285290#1 150032863#4 150032863#3 150032863#2 149518802#0 149518793 365216933 378479743#4 378479743#3 378479743#2 -378479743#1 -378479743#0 700440131 506015829#1 E0 E3 E4 -378491236 -150041636#0 -150041636#1 -150041636#2 -150041594#1 150041624#0 -150041624#1 881694397 -700440128 -700440130#1 -700440130#0 150041699#1 -150041645#0 359458217#2"/>
    </person>
    <person id="pedestrian81" depart="246.75">
        <walk edges="-150041716#3 150041716#4 715910744#0 -715910744#1 4195580#2 4195580#1 4195580#0 -4144040#1 4144040#2"/>
    </person>
    <person id="pedestrian82" depart="248.22">
        <walk edges="-1153038902#4 715835444#2 715835444#1 4195580#2 4195580#1 4195580#0 -4144040#1 -4144040#2 484022097 4195610#2 -13858853 -47492539 13858854 -24507771 -1287285290#3 -218848625#1 -327864903#1 -327864903#0 150032770#0 150032770#1 150032770#2 150032770#5 218649572 319910922 319910923#0 319910923#1 319910923#2 319910914 319910916 52414187 23401995#3"/>
    </person>
    <person id="pedestrian83" depart="248.33">
        <walk edges="715835444#5 715835444#4 150041551#0 150041551#1 150041551#2 150041716#1 886547966 886404164#1 1207750548"/>
    </person>
    <person id="pedestrian84" depart="249.02">
        <walk edges="749484712#1 255729754#0 E4 E3 E0 506015829#1 700440131 -378479743#0 -378479743#1 -378479743#2 -378479743#3 -23248109#1 -23248109#0 -23248118 689756683 638694840#1"/>
    </person>
    <person id="pedestrian85" depart="253.26">
        <walk edges="150041551#0 715835444#3 715835444#2 715835444#1 4195580#2 4195580#1 4195580#0 -4144040#1 -4144040#2 4144040#3 4144040#4 700440148 378479743#0 378479743#1 378479743#2 378479743#3 378479743#4 -365216932"/>
    </person>
    <person id="pedestrian86" depart="258.08">
        <walk edges="886404164#1 886404164#0 -886547965#1 -29895519#2 29895520#0 -1185258339 1185258336#2 -1185258336#0 1153038902#4 -715835444#2"/>
    </person>
    <person id="pedestrian87" depart="258.24">
        <walk edges="285188050 -4144040#1 4195580#0 4195580#1 4195580#2 715835444#1 715835444#2 1153038902#4 1153038902#2 -1153038902#0 -29895520#3 -23101679#0 150041551#1 -4295817#3 -4295817#1 -4295817#0 700440129"/>
    </person>
    <person id="pedestrian88" depart="260.34">
        <walk edges="-150041682 -23248109#1 -378479743#3 -378479743#2 -378479743#1 -378479743#0 700440131 506015829#1 E0 E3 E4 255729810"/>
    </person>
    <person id="pedestrian89" depart="262.32">
        <walk edges="22911004 -23248118 -23248109#0 -23248109#1 378479743#3 365216934"/>
    </person>
    <person id="pedestrian90" depart="263.29">
        <walk edges="750168164 -750168166#0 715835444#4 715835444#3 715835444#2 715835444#1 4195580#2 4195580#1 4195580#0 -4144040#1 -4144040#2 -4144040#3 -4144040#4 700440131"/>
    </person>
    <person id="pedestrian91" depart="265.33">
        <walk edges="-29895519#1 150041716#3 150041716#4 E4 E3 E0 506015829#1 700440131 -378479743#0 -378479743#1 -378479743#2 -378479743#3 -23248109#1 -23248109#0 -23248118 689756683"/>
    </person>
    <person id="pedestrian92" depart="267.49">
        <walk edges="-29895519#1 -29895519#2 715802321"/>
    </person>
    <person id="pedestrian94" depart="269.31">
        <walk edges="150041624#3 150041624#2 881694397 -4295817#0 23508224 715835444#5 -750168166#0 750168164"/>
    </person>
    <person id="pedestrian95" depart="269.76">
        <walk edges="886404164#0 -886547965#1 -29895519#2 29895520#0 -1185258339 1185258336#2 -1185258336#0 1153038902#4 715835444#3"/>
    </person>
    <person id="pedestrian96" depart="271.09">
        <walk edges="638694840#0 -638694840#1 689756683 -23248118 -23248109#0 -23248109#1 -378479743#3 -378479743#2 -378479743#1 -378479743#0 700440131 506015829#1 E0 E3 E4 -378491236 -150041636#0 -150041636#1 -150041636#2 -150041594#1 150041624#0 -150041624#1 881694397 -700440128 -700440130#1 -700440130#0 150041699#1 -1160713521"/>
    </person>
    <person id="pedestrian97" depart="274.77">
        <walk edges="255729754#0 E4 E3 E0 506015829#1 700440131 -378479743#0 -378479743#1 -378479743#2 -378479743#3 -23248109#1 150041682 -22911004"/>
    </person>
    <person id="pedestrian98" depart="276.35">
        <walk edges="987109589#1 689756683 -23248118 -23248109#0 -23248109#1 -378479743#3 -378479743#2 -378479743#1 -378479743#0 700440131 -4144040#4 -585579893"/>
    </person>
    <person id="pedestrian100" depart="277.36">
        <walk edges="150041624#2 881694397 -4295817#0 4295817#1 750168165"/>
    </person>
    <person id="pedestrian101" depart="278.20">
        <walk edges="55556572 -4195580#2 -4195580#1 -4195580#0 -4144040#1 -4144040#2 484022097 4195610#2 -13858853 -47492539 13858854 -24507771 -1287285290#3 -539841923#0 150032863#1 150032863#2"/>
    </person>
    <person id="pedestrian102" depart="280.58">
        <walk edges="-35771741 148061776#1 -28230108 -150041636#0 -378491236 E4 E3 E0 506015829#1 700440131 -378479743#0 -378479743#1 -378479743#2 -378479743#3 -23248109#1 -23248109#0"/>
    </person>
    <person id="pedestrian103" depart="281.00">
        <walk edges="-285188048 -4144040#2 484022097 4195610#2 -13858853 -47492539 13858854 -24507771 -1287285290#3 -218848625#1 -327864903#1 -327864903#0 -150032770#0 -150032770#1 -150032770#2 -150032770#5 -150032770#6 255729814#1 150032812#1"/>
    </person>
    <person id="pedestrian105" depart="284.87">
        <walk edges="378479743#0 378479743#1 378479743#2 378479743#3 -23248109#1 -23248109#0 -23248118 689756683 -638694840#1 638694840#0 4213561#1"/>
    </person>
    <person id="pedestrian106" depart="285.46">
        <walk edges="255729754#0 E4 E3 E0 506015829#1 700440131 -378479743#0 -378479743#1 -378479743#2 -378479743#3 -23248109#1 -23248109#0 -23248118 689756683 -638694840#1 638694840#0 378543238"/>
    </person>
    <person id="pedestrian107" depart="290.88">
        <walk edges="-29895519#1 150041716#3 150041716#4 E4 E3 E0 506015829#1 700440131 -378479743#0 -378479743#1 -378479743#2 -378479743#3 -23248109#1 -23248109#0 -23248118 689756683 -638694840#1 638694840#0 4213561#1 4213561#0 4213557 256102749 56028463#0"/>
    </person>
    <person id="pedestrian109" depart="292.79">
        <walk edges="150041716#3 -150041716#2 150041716#1 150041594#0 1290085526#0 700440129 -700440128 -700440130#1 -700440130#0 150041699#1 -150041645#0"/>
    </person>
    <person id="pedestrian110" depart="292.94">
        <walk edges="29895520#3 -29895520#3"/>
    </person>
    <person id="pedestrian111" depart="295.30">
        <walk edges="-256102751#0 E1.13 700440138 700440139 -378479743#6 -378479743#5 -378479743#4 -378479743#3 -378479743#2 -378479743#1 -378479743#0 700440131 -4144040#4 -4144040#3 -4144040#2 -4144040#1 -4195580#0 -4195580#1 -4195580#2 -715835444#1 -715835444#2 -715835444#3"/>
    </person>
    <person id="pedestrian113" depart="298.56">
        <walk edges="-4209642 700440131 -378479743#0 -378479743#1 -378479743#2 -378479743#3 -23248109#1 -23248109#0 -23248118 689756683 -638694840#1 638694840#0 378543238 847071794 378543235#0"/>
    </person>
    <person id="pedestrian114" depart="298.85">
        <walk edges="847071794 378543238 638694840#0 -638694840#1 689756683 -23248118 -23248109#0 -23248109#1 -378479743#3 -378479743#2 -378479743#1 -378479743#0 700440131 506015829#1 E0 E3 255729797#1 689912266 -689912267#0"/>
    </person>
    <person id="pedestrian115" depart="300.37">
        <walk edges="365216934 378479743#2 -378479743#1 -378479743#0 700440131 506015829#1 E0 E3 E4 150041716#4 150041716#3 -29895519#1 -29895519#2 29895520#0 -1185258339 1185258336#2 -1185258336#0"/>
    </person>
    <person id="pedestrian116" depart="302.01">
        <walk edges="285295366 -285295366 700440128 4295817#0 4295817#1 4295817#3 -150041551#1 -23101679#0 -29895520#3 -1153038902#0 1153038902#2 1153038902#4 715835444#2 715835444#1 4195580#2 4195580#1 4195580#0 -4144040#1 -4144040#2 484022097 4195610#2 -13858853 -47492539 13858854 -24507771 -1287285290#3 -218848625#1 -327864903#1 -327864903#0 150032770#0 150032770#1 150032770#2 150032770#5 218649572 319910922 319910923#0 319910923#1 319911561"/>
    </person>
    <person id="pedestrian117" depart="302.87">
        <walk edges="-150032770#6 255729814#1 150032812#1 -149518804#2 -149518804#3 -23401995#1"/>
    </person>
    <person id="pedestrian118" depart="303.16">
        <walk edges="-69990704 -69990712 43206316 -150041624#3 150041624#2 881694397 -4295817#0 -4295817#1 -4295817#3 150041551#1 -23101679#0 -29895520#3 -1153038902#0 1153038902#2 1185258343"/>
    </person>
    <person id="pedestrian119" depart="303.31">
        <walk edges="150041661 -150041636#1 -150041636#0 -378491236 715910744#0 694832101 694836606 694836603 694836605"/>
    </person>
    <person id="pedestrian120" depart="306.65">
        <walk edges="327864907 218848626#1 -327864903#1 -218848625#1 -1287285290#3 -24507771 13858854 -47492539 -13858853 4195610#2 484022097 -4144040#2 -4144040#1 4195580#0 4195580#1 4195580#2 715835444#1 715835444#2 1153038902#4 1153038902#2 -1153038902#0 -29895520#3 -23101679#0 150041551#1 -4295817#3 -4295817#1 -4295817#0 -700440128"/>
    </person>
    <person id="pedestrian121" depart="307.53">
        <walk edges="-23401995#1 -149518804#3 -149518804#2 -149518804#0 -984768176#1 -150032873 700236092#1 700236092#0 378479743#6 -378479743#6 700440139"/>
    </person>
    <person id="pedestrian122" depart="308.06">
        <walk edges="-638694840#1 638694840#0 4213561#1 366601855 366601856 256102750#3 -56015406#0 -56015406#1 56028463#1 257510648"/>
    </person>
    <person id="pedestrian123" depart="314.30">
        <walk edges="-409784476 4195610#2 484022097 4144040#3 -4144040#4 -23599727#0"/>
    </person>
    <person id="pedestrian124" depart="318.32">
        <walk edges="-28247400#0 4209642 700440131 -378479743#0 -378479743#1 378479743#2 378479743#3 378479743#4 378479743#5 378479743#6"/>
    </person>
    <person id="pedestrian125" depart="322.75">