<?xml version="1.0" encoding="UTF-8"?>

<!-- generated on 2024-11-04 13:15:05 by Eclipse SUMO netedit Version 1.20.0
-->

<routes xmlns:xsi="http://www.w3.org/2001/XMLSchema-instance" xsi:noNamespaceSchemaLocation="http://sumo.dlr.de/xsd/routes_file.xsd">
    <!-- VTypes -->
    <vType id="DEFAULT_VEHTYPE" vClass="bus"/>
    <vType id="bus_1" vClass="bus"/>
    <vType id="t_0"/>
    <!-- Routes -->
    <route id="br_0" edges="359458217#0 359458217#2 150041593 196656222#0 196656222#1 196656222#2 700440130#0 700440130#1 700440128 700440129 1290085526#0 150041594#0 56163443#1 700440137 38115197#0 214846345#2 214846345#3 253272005 378479743#0 378479743#1 378479743#2 378479743#3 378479743#4 378479743#5 378479743#6 -1265069358#1 -1265069360#0">
        <stop busStop="bs_2" duration="60.00"/>
        <stop busStop="bs_4" duration="60.00"/>
        <stop busStop="bs_6" duration="60.00"/>
    </route>
    <route id="br_1" edges="1265069359 1265069358#1 -378479743#6 -378479743#5 -378479743#4 -378479743#3 -378479743#2 -378479743#1 -378479743#0 -253272005 -214846345#3 -214846345#2 -38115197#0 -700440136 -56163443#3 -150041594#1 -1290085526#1 -700440129 -700440128 -700440130#1 -700440130#0 -196656222#2 -196656222#1 -196656222#0 -53207957 150041579#0 150041579#2">
        <stop busStop="bs_5" duration="60.00"/>
        <stop busStop="bs_3" duration="60.00"/>
        <stop busStop="bs_0" duration="60.00"/>
    </route>
    <!-- Vehicles, persons and containers (sorted by depart) -->
    <flow id="f_0" type="bus_1" begin="0.00" route="br_0" end="3600.00" vehsPerHour="6"/>
    <flow id="f_1" type="bus_1" begin="0.00" route="br_1" end="3600.00" vehsPerHour="6"/>
</routes>
