<?xml version="1.0" encoding="UTF-8"?>

<!-- generated on 2024-10-15 07:47:55 by Eclipse SUMO netedit Version 1.20.0
-->

<additional xmlns:xsi="http://www.w3.org/2001/XMLSchema-instance" xsi:noNamespaceSchemaLocation="http://sumo.dlr.de/xsd/additional_file.xsd">
    <!-- Detectors -->
    <inductionLoop id="e1_0" name="D81" lane="492925919_0" pos="13.29" period="300.00" file="e1_0.xml"/>
    <inductionLoop id="e1_1" name="D84" lane="395456769#1_3" pos="17.16" period="300.00" file="e1_1.xml"/>
    <inductionLoop id="e1_2" name="D83" lane="395456769#1_2" pos="16.98" period="300.00" file="e1_2.xml"/>
    <inductionLoop id="e1_3" name="D82" lane="492925919_1" pos="12.47" period="300.00" file="e1_3.xml"/>
    <inductionLoop id="e1_4" name="Z1" lane="395456769#1_1" pos="16.37" period="300.00" file="e1_4.xml"/>
    <inductionLoop id="e1_5" name="DK51" lane="-1265069358#1_0" pos="6.06" period="300.00" file="e1_5.xml"/>
    <inductionLoop id="e1_6" name="D44" lane="378479743#6_3" pos="3.92" period="300.00" file="e1_6.xml"/>
    <inductionLoop id="e1_7" name="D43" lane="378479743#6_2" pos="4.24" period="300.00" file="e1_7.xml"/>
    <inductionLoop id="e1_8" name="D42" lane="700236092#1_3" pos="10.66" period="300.00" file="e1_8.xml"/>
    <inductionLoop id="e1_9" name="D41" lane="700236092#1_2" pos="10.88" period="300.00" file="e1_9.xml"/>
</additional>
