<?xml version="1.0" encoding="UTF-8"?>

<!-- generated on 2024-10-18 12:03:36.161411 by randomTrips.py UNKNOWN
<configuration>
    <net-file value="osm.net.xml.gz"/>
    <additional-files value="osm_stops.add.xml,osm_pt.rou.xml"/>
    <output-trip-file value="osm.pedestrian.trips.xml"/>
    <route-file value="osm.pedestrian.rou.xml"/>
    <persontrips value="True"/>
    <persontrip.walk-opposite-factor value="0.8"/>
    <prefix value="ped"/>
    <trip-attributes value="modes=&quot;public&quot;"/>
    <vehicle-class value="pedestrian"/>
    <fringe-factor value="1"/>
    <insertion-density value="10.0"/>
    <duarouter-weights.tls-penalty value="20"/>
</configuration>
-->

<routes xmlns:xsi="http://www.w3.org/2001/XMLSchema-instance" xsi:noNamespaceSchemaLocation="http://sumo.dlr.de/xsd/routes_file.xsd">
    <vType id="ped_pedestrian" vClass="pedestrian"/>
    <person id="ped0" depart="0.00" type="ped_pedestrian">
        <personTrip from="283117346#0" to="-1185258342" modes="public"/>
    </person>
    <person id="ped1" depart="16.90" type="ped_pedestrian">
        <personTrip from="-563630392#0" to="-4144040#4" modes="public"/>
    </person>
    <person id="ped2" depart="33.80" type="ped_pedestrian">
        <personTrip from="378479743#0" to="319910916" modes="public"/>
    </person>
    <person id="ped3" depart="50.70" type="ped_pedestrian">
        <personTrip from="638694840#0" to="-150041699#2" modes="public"/>
    </person>
    <person id="ped4" depart="67.60" type="ped_pedestrian">
        <personTrip from="1287285290#3" to="-1287285290#0" modes="public"/>
    </person>
    <person id="ped5" depart="84.50" type="ped_pedestrian">
        <personTrip from="-4144040#1" to="150041716#1" modes="public"/>
    </person>
    <person id="ped6" depart="101.40" type="ped_pedestrian">
        <personTrip from="-1185258343" to="-365216934" modes="public"/>
    </person>
    <person id="ped7" depart="118.30" type="ped_pedestrian">
        <personTrip from="285278284#0" to="23508224" modes="public"/>
    </person>
    <person id="ped8" depart="135.20" type="ped_pedestrian">
        <personTrip from="-4144040#2" to="256102744" modes="public"/>
    </person>
    <person id="ped9" depart="152.10" type="ped_pedestrian">
        <personTrip from="458284295" to="-115485620#0" modes="public"/>
    </person>
    <person id="ped10" depart="169.00" type="ped_pedestrian">
        <personTrip from="458284292#1" to="327864908" modes="public"/>
    </person>
    <person id="ped11" depart="185.90" type="ped_pedestrian">
        <personTrip from="-750168167" to="-285188051#2" modes="public"/>
    </person>
    <person id="ped12" depart="202.80" type="ped_pedestrian">
        <personTrip from="750168166#1" to="-750168165" modes="public"/>
    </person>
    <person id="ped13" depart="219.70" type="ped_pedestrian">
        <personTrip from="-150041716#3" to="-218848625#0" modes="public"/>
    </person>
    <person id="ped14" depart="236.60" type="ped_pedestrian">
        <personTrip from="53207954#0" to="256105105#2" modes="public"/>
    </person>
    <person id="ped15" depart="253.50" type="ped_pedestrian">
        <personTrip from="458284292#2" to="365217759" modes="public"/>
    </person>
    <person id="ped16" depart="270.40" type="ped_pedestrian">
        <personTrip from="23401995#3" to="881694398" modes="public"/>
    </person>
    <person id="ped17" depart="287.30" type="ped_pedestrian">
        <personTrip from="115485620#0" to="245221889" modes="public"/>
    </person>
    <person id="ped18" depart="304.20" type="ped_pedestrian">
        <personTrip from="478347393" to="257510648" modes="public"/>
    </person>
    <person id="ped19" depart="321.11" type="ped_pedestrian">
        <personTrip from="56028463#1" to="255797400" modes="public"/>
    </person>
    <person id="ped20" depart="338.01" type="ped_pedestrian">
        <personTrip from="359458205" to="-149518798" modes="public"/>
    </person>
    <person id="ped21" depart="354.91" type="ped_pedestrian">
        <personTrip from="-4195580#2" to="-624481020#3" modes="public"/>
    </person>
    <person id="ped22" depart="371.81" type="ped_pedestrian">
        <personTrip from="-150041645#4" to="-4295817#3" modes="public"/>
    </person>
    <person id="ped23" depart="388.71" type="ped_pedestrian">
        <personTrip from="-22911004" to="-563630394#0" modes="public"/>
    </person>
    <person id="ped24" depart="405.61" type="ped_pedestrian">
        <personTrip from="28247400#2" to="-987109590" modes="public"/>
    </person>
    <person id="ped25" depart="422.51" type="ped_pedestrian">
        <personTrip from="1125742272" to="-378479743#4" modes="public"/>
    </person>
    <person id="ped26" depart="439.41" type="ped_pedestrian">
        <personTrip from="-539841923#1" to="715910743#0" modes="public"/>
    </person>
    <person id="ped27" depart="456.31" type="ped_pedestrian">
        <personTrip from="285188051#2" to="256105105#5" modes="public"/>
    </person>
    <person id="ped28" depart="473.21" type="ped_pedestrian">
        <personTrip from="-29895520#3" to="365217759" modes="public"/>
    </person>
    <person id="ped29" depart="490.11" type="ped_pedestrian">
        <personTrip from="-29895519#1" to="115485620#0" modes="public"/>
    </person>
    <person id="ped30" depart="507.01" type="ped_pedestrian">
        <personTrip from="984768175" to="283117346#0" modes="public"/>
    </person>
    <person id="ped31" depart="523.91" type="ped_pedestrian">
        <personTrip from="253230762" to="319910933#1" modes="public"/>
    </person>
    <person id="ped32" depart="540.81" type="ped_pedestrian">
        <personTrip from="519402126" to="4195610#2" modes="public"/>
    </person>
    <person id="ped33" depart="557.71" type="ped_pedestrian">
        <personTrip from="-4209642" to="-1287285290#1" modes="public"/>
    </person>
    <person id="ped34" depart="574.61" type="ped_pedestrian">
        <personTrip from="-715835444#2" to="-539841923#1" modes="public"/>
    </person>
    <person id="ped35" depart="591.51" type="ped_pedestrian">
        <personTrip from="-378479743#5" to="715911183#0" modes="public"/>
    </person>
    <person id="ped36" depart="608.41" type="ped_pedestrian">
        <personTrip from="56447699#1" to="-715835444#2" modes="public"/>
    </person>
    <person id="ped37" depart="625.31" type="ped_pedestrian">
        <personTrip from="29895517" to="1185258336#0" modes="public"/>
    </person>
    <person id="ped38" depart="642.21" type="ped_pedestrian">
        <personTrip from="700236092#1" to="150032812#1" modes="public"/>
    </person>
    <person id="ped39" depart="659.11" type="ped_pedestrian">
        <personTrip from="-53207954#1" to="-478347392#0" modes="public"/>
    </person>
    <person id="ped40" depart="676.01" type="ped_pedestrian">
        <personTrip from="255729754#2" to="-526519487" modes="public"/>
    </person>
    <person id="ped41" depart="692.91" type="ped_pedestrian">
        <personTrip from="255797402#1" to="689912266" modes="public"/>
    </person>
    <person id="ped42" depart="709.81" type="ped_pedestrian">
        <personTrip from="1185258336#3" to="-4144040#2" modes="public"/>
    </person>
    <person id="ped43" depart="726.71" type="ped_pedestrian">
        <personTrip from="987109590" to="150041716#4" modes="public"/>
    </person>
    <person id="ped44" depart="743.61" type="ped_pedestrian">
        <personTrip from="-150041716#2" to="-149518804#0" modes="public"/>
    </person>
    <person id="ped45" depart="760.51" type="ped_pedestrian">
        <personTrip from="-23401995#1" to="28230108" modes="public"/>
    </person>
    <person id="ped46" depart="777.41" type="ped_pedestrian">
        <personTrip from="43206409" to="1287285290#3" modes="public"/>
    </person>
    <person id="ped47" depart="794.31" type="ped_pedestrian">
        <personTrip from="-150041551#3" to="1162647991" modes="public"/>
    </person>
    <person id="ped48" depart="811.21" type="ped_pedestrian">
        <personTrip from="987109589#1" to="23101679#0" modes="public"/>
    </person>
    <person id="ped49" depart="828.11" type="ped_pedestrian">
        <personTrip from="881694397" to="56028463#1" modes="public"/>
    </person>
    <person id="ped50" depart="845.01" type="ped_pedestrian">
        <personTrip from="-1162647992" to="365216929" modes="public"/>
    </person>
    <person id="ped51" depart="861.91" type="ped_pedestrian">
        <personTrip from="319910923#2" to="23401995#3" modes="public"/>
    </person>
    <person id="ped52" depart="878.81" type="ped_pedestrian">
        <personTrip from="-539841923#1" to="283117346#1" modes="public"/>
    </person>
    <person id="ped53" depart="895.71" type="ped_pedestrian">
        <personTrip from="-23401995#2" to="13858859" modes="public"/>
    </person>
    <person id="ped54" depart="912.61" type="ped_pedestrian">
        <personTrip from="150032770#5" to="750168164" modes="public"/>
    </person>
    <person id="ped55" depart="929.52" type="ped_pedestrian">
        <personTrip from="56447699#0" to="-526519487" modes="public"/>
    </person>
    <person id="ped56" depart="946.42" type="ped_pedestrian">
        <personTrip from="150041699#1" to="-35098345" modes="public"/>
    </person>
    <person id="ped57" depart="963.32" type="ped_pedestrian">
        <personTrip from="69990712" to="563630394#0" modes="public"/>
    </person>
    <person id="ped58" depart="980.22" type="ped_pedestrian">
        <personTrip from="-689912267#0" to="283117346#0" modes="public"/>
    </person>
    <person id="ped59" depart="997.12" type="ped_pedestrian">
        <personTrip from="256105105#5" to="-285188051#0" modes="public"/>
    </person>
    <person id="ped60" depart="1014.02" type="ped_pedestrian">
        <personTrip from="4144040#0" to="23508141#1" modes="public"/>
    </person>
    <person id="ped61" depart="1030.92" type="ped_pedestrian">
        <personTrip from="4213557" to="23101679#1" modes="public"/>
    </person>
    <person id="ped62" depart="1047.82" type="ped_pedestrian">
        <personTrip from="-1153020821" to="-715911183#0" modes="public"/>
    </person>
    <person id="ped63" depart="1064.72" type="ped_pedestrian">
        <personTrip from="-1185258337" to="715835444#1" modes="public"/>
    </person>
    <person id="ped64" depart="1081.62" type="ped_pedestrian">
        <personTrip from="572523427" to="484022097" modes="public"/>
    </person>
    <person id="ped65" depart="1098.52" type="ped_pedestrian">
        <personTrip from="-700440129" to="-150032770#6" modes="public"/>
    </person>
    <person id="ped66" depart="1115.42" type="ped_pedestrian">
        <personTrip from="572523427" to="715911184" modes="public"/>
    </person>
    <person id="ped67" depart="1132.32" type="ped_pedestrian">
        <personTrip from="-150041699#1" to="150041624#2" modes="public"/>
    </person>
    <person id="ped68" depart="1149.22" type="ped_pedestrian">
        <personTrip from="-150041624#1" to="409784476" modes="public"/>
    </person>
    <person id="ped69" depart="1166.12" type="ped_pedestrian">
        <personTrip from="4144040#3" to="-255729776" modes="public"/>
    </person>
    <person id="ped70" depart="1183.02" type="ped_pedestrian">
        <personTrip from="150041551#1" to="24509268" modes="public"/>
    </person>
    <person id="ped71" depart="1199.92" type="ped_pedestrian">
        <personTrip from="-539841923#0" to="563630394#1" modes="public"/>
    </person>
    <person id="ped72" depart="1216.82" type="ped_pedestrian">
        <personTrip from="1287285290#4" to="-378479743#6" modes="public"/>
    </person>
    <person id="ped73" depart="1233.72" type="ped_pedestrian">
        <personTrip from="23508141#1" to="365217759" modes="public"/>
    </person>
    <person id="ped74" depart="1250.62" type="ped_pedestrian">
        <personTrip from="-378479737#0" to="-715802321" modes="public"/>
    </person>
    <person id="ped75" depart="1267.52" type="ped_pedestrian">
        <personTrip from="987109589#0" to="285278284#0" modes="public"/>
    </person>
    <person id="ped76" depart="1284.42" type="ped_pedestrian">
        <personTrip from="148061776#1" to="196656222#2" modes="public"/>
    </person>
    <person id="ped77" depart="1301.32" type="ped_pedestrian">
        <personTrip from="-23599727#0" to="-4195580#0" modes="public"/>
    </person>
    <person id="ped78" depart="1318.22" type="ped_pedestrian">
        <personTrip from="-750168166#0" to="256102744" modes="public"/>
    </person>
    <person id="ped79" depart="1335.12" type="ped_pedestrian">
        <personTrip from="-4295817#0" to="-4144040#2" modes="public"/>
    </person>
    <person id="ped80" depart="1352.02" type="ped_pedestrian">
        <personTrip from="-150041624#2" to="28247399" modes="public"/>
    </person>
    <person id="ped81" depart="1368.92" type="ped_pedestrian">
        <personTrip from="-4209642" to="694836604" modes="public"/>
    </person>
    <person id="ped82" depart="1385.82" type="ped_pedestrian">
        <personTrip from="56028463#0" to="-150041624#2" modes="public"/>
    </person>
    <person id="ped83" depart="1402.72" type="ped_pedestrian">
        <personTrip from="-43206316" to="31232610" modes="public"/>
    </person>
    <person id="ped84" depart="1419.62" type="ped_pedestrian">
        <personTrip from="-378491236" to="-256102751#0" modes="public"/>
    </person>
    <person id="ped85" depart="1436.52" type="ped_pedestrian">
        <personTrip from="715835444#5" to="255729804#3" modes="public"/>
    </person>
    <person id="ped86" depart="1453.42" type="ped_pedestrian">
        <personTrip from="150032877" to="4295817#1" modes="public"/>
    </person>
    <person id="ped87" depart="1470.32" type="ped_pedestrian">
        <personTrip from="458284292#2" to="-359458208#2" modes="public"/>
    </person>
    <person id="ped88" depart="1487.22" type="ped_pedestrian">
        <personTrip from="-218848625#0" to="13858853" modes="public"/>
    </person>
    <person id="ped89" depart="1504.12" type="ped_pedestrian">
        <personTrip from="1287285290#4" to="150032863#2" modes="public"/>
    </person>
    <person id="ped90" depart="1521.02" type="ped_pedestrian">
        <personTrip from="365217759" to="319910912" modes="public"/>
    </person>
    <person id="ped91" depart="1537.92" type="ped_pedestrian">
        <personTrip from="886547965#1" to="-218848625#1" modes="public"/>
    </person>
    <person id="ped92" depart="1554.83" type="ped_pedestrian">
        <personTrip from="1185258337" to="-750168166#1" modes="public"/>
    </person>
    <person id="ped93" depart="1571.73" type="ped_pedestrian">
        <personTrip from="56028463#1" to="-478347392#1" modes="public"/>
    </person>
    <person id="ped94" depart="1588.63" type="ped_pedestrian">
        <personTrip from="-359458208#2" to="149518804#3" modes="public"/>
    </person>
    <person id="ped95" depart="1605.53" type="ped_pedestrian">
        <personTrip from="1287285290#3" to="-563630394#0" modes="public"/>
    </person>
    <person id="ped96" depart="1622.43" type="ped_pedestrian">
        <personTrip from="-478347393" to="700440138" modes="public"/>
    </person>
    <person id="ped97" depart="1639.33" type="ped_pedestrian">
        <personTrip from="149518802#0" to="56028463#1" modes="public"/>
    </person>
    <person id="ped98" depart="1656.23" type="ped_pedestrian">
        <personTrip from="24509268" to="-150032770#0" modes="public"/>
    </person>
    <person id="ped99" depart="1673.13" type="ped_pedestrian">
        <personTrip from="999293416" to="494297577#1" modes="public"/>
    </person>
    <person id="ped100" depart="1690.03" type="ped_pedestrian">
        <personTrip from="847071794" to="700440148" modes="public"/>
    </person>
    <person id="ped101" depart="1706.93" type="ped_pedestrian">
        <personTrip from="539509020" to="-29895520#0" modes="public"/>
    </person>
    <person id="ped102" depart="1723.83" type="ped_pedestrian">
        <personTrip from="150041624#2" to="-378491236" modes="public"/>
    </person>
    <person id="ped103" depart="1740.73" type="ped_pedestrian">
        <personTrip from="1185258336#4" to="-150032873" modes="public"/>
    </person>
    <person id="ped104" depart="1757.63" type="ped_pedestrian">
        <personTrip from="115485620#0" to="886547966" modes="public"/>
    </person>
    <person id="ped105" depart="1774.53" type="ped_pedestrian">
        <personTrip from="-539841923#0" to="4295817#0" modes="public"/>
    </person>
    <person id="ped106" depart="1791.43" type="ped_pedestrian">
        <personTrip from="150032770#6" to="1287285290#4" modes="public"/>
    </person>
    <person id="ped107" depart="1808.33" type="ped_pedestrian">
        <personTrip from="750168166#1" to="987109589#1" modes="public"/>
    </person>
    <person id="ped108" depart="1825.23" type="ped_pedestrian">
        <personTrip from="253230759#1" to="359458219" modes="public"/>
    </person>
    <person id="ped109" depart="1842.13" type="ped_pedestrian">
        <personTrip from="-285188051#2" to="-689756683" modes="public"/>
    </person>
    <person id="ped110" depart="1859.03" type="ped_pedestrian">
        <personTrip from="847071794" to="255797401#0" modes="public"/>
    </person>
    <person id="ped111" depart="1875.93" type="ped_pedestrian">
        <personTrip from="23508142#1" to="378491236" modes="public"/>
    </person>
    <person id="ped112" depart="1892.83" type="ped_pedestrian">
        <personTrip from="-150032770#6" to="255797402#1" modes="public"/>
    </person>
    <person id="ped113" depart="1909.73" type="ped_pedestrian">
        <personTrip from="150041716#0" to="539841923#0" modes="public"/>
    </person>
    <person id="ped114" depart="1926.63" type="ped_pedestrian">
        <personTrip from="-285278284#1" to="750404423" modes="public"/>
    </person>
    <person id="ped115" depart="1943.53" type="ped_pedestrian">
        <personTrip from="-150041645#4" to="-359458206" modes="public"/>
    </person>
    <person id="ped116" depart="1960.43" type="ped_pedestrian">
        <personTrip from="256102749" to="319910914" modes="public"/>
    </person>
    <person id="ped117" depart="1977.33" type="ped_pedestrian">
        <personTrip from="-4305021#0" to="-23508224" modes="public"/>
    </person>
    <person id="ped118" depart="1994.23" type="ped_pedestrian">
        <personTrip from="624481020#4" to="-47492539" modes="public"/>
    </person>
    <person id="ped119" depart="2011.13" type="ped_pedestrian">
        <personTrip from="256102749" to="257510661#2" modes="public"/>
    </person>
    <person id="ped120" depart="2028.03" type="ped_pedestrian">
        <personTrip from="1287285290#1" to="255797402#1" modes="public"/>
    </person>
    <person id="ped121" depart="2044.93" type="ped_pedestrian">
        <personTrip from="218848626#1" to="715835444#5" modes="public"/>
    </person>
    <person id="ped122" depart="2061.83" type="ped_pedestrian">
        <personTrip from="-378479743#1" to="359458217#0" modes="public"/>
    </person>
    <person id="ped123" depart="2078.73" type="ped_pedestrian">
        <personTrip from="-43206316" to="1185258336#0" modes="public"/>
    </person>
    <person id="ped124" depart="2095.63" type="ped_pedestrian">
        <personTrip from="319910910#1" to="-694836604" modes="public"/>
    </person>
    <person id="ped125" depart="2112.53" type="ped_pedestrian">
        <personTrip from="-715835444#3" to="378543235#1" modes="public"/>
    </person>
    <person id="ped126" depart="2129.43" type="ped_pedestrian">
        <personTrip from="-150041624#3" to="150032812#1" modes="public"/>
    </person>
    <person id="ped127" depart="2146.33" type="ped_pedestrian">
        <personTrip from="987109590" to="987109589#1" modes="public"/>
    </person>
    <person id="ped128" depart="2163.24" type="ped_pedestrian">
        <personTrip from="-150041624#3" to="-378491236" modes="public"/>
    </person>
    <person id="ped129" depart="2180.14" type="ped_pedestrian">
        <personTrip from="-539841923#0" to="715835444#4" modes="public"/>
    </person>
    <person id="ped130" depart="2197.04" type="ped_pedestrian">
        <personTrip from="585579893" to="58448723" modes="public"/>
    </person>
    <person id="ped131" depart="2213.94" type="ped_pedestrian">
        <personTrip from="1125742272" to="-285295366" modes="public"/>
    </person>
    <person id="ped132" depart="2230.84" type="ped_pedestrian">
        <personTrip from="494297577#0" to="35771743#1" modes="public"/>
    </person>
    <person id="ped133" depart="2247.74" type="ped_pedestrian">
        <personTrip from="256105105#7" to="957138676#0" modes="public"/>
    </person>
    <person id="ped134" depart="2264.64" type="ped_pedestrian">
        <personTrip from="286646440" to="-115485620#1" modes="public"/>
    </person>
    <person id="ped135" depart="2281.54" type="ped_pedestrian">
        <personTrip from="465884703#0" to="-694836604" modes="public"/>
    </person>
    <person id="ped136" depart="2298.44" type="ped_pedestrian">
        <personTrip from="29895520#2" to="715910744#0" modes="public"/>
    </person>
    <person id="ped137" depart="2315.34" type="ped_pedestrian">
        <personTrip from="-257510647#0" to="-23508141#1" modes="public"/>
    </person>
    <person id="ped138" depart="2332.24" type="ped_pedestrian">
        <personTrip from="-23248109#1" to="253230759#0" modes="public"/>
    </person>
    <person id="ped139" depart="2349.14" type="ped_pedestrian">
        <personTrip from="-56015406#1" to="256105105#2" modes="public"/>
    </person>
    <person id="ped140" depart="2366.04" type="ped_pedestrian">
        <personTrip from="359458217#2" to="-378479743#0" modes="public"/>
    </person>
    <person id="ped141" depart="2382.94" type="ped_pedestrian">
        <personTrip from="28247400#1" to="-53207954#1" modes="public"/>
    </person>
    <person id="ped142" depart="2399.84" type="ped_pedestrian">
        <personTrip from="150041636#0" to="694836604" modes="public"/>
    </person>
    <person id="ped143" depart="2416.74" type="ped_pedestrian">
        <personTrip from="528567529" to="-150041716#3" modes="public"/>
    </person>
    <person id="ped144" depart="2433.64" type="ped_pedestrian">
        <personTrip from="1287285290#4" to="-563630392#1" modes="public"/>
    </person>
    <person id="ped145" depart="2450.54" type="ped_pedestrian">
        <personTrip from="-1153038902#2" to="4195580#1" modes="public"/>
    </person>
    <person id="ped146" depart="2467.44" type="ped_pedestrian">
        <personTrip from="28247401" to="-526519487" modes="public"/>
    </person>
    <person id="ped147" depart="2484.34" type="ped_pedestrian">
        <personTrip from="378479743#4" to="245221889" modes="public"/>
    </person>
    <person id="ped148" depart="2501.24" type="ped_pedestrian">
        <personTrip from="1312670616" to="-1160713521" modes="public"/>
    </person>
    <person id="ped149" depart="2518.14" type="ped_pedestrian">
        <personTrip from="-150041636#1" to="59591191" modes="public"/>
    </person>
    <person id="ped150" depart="2535.04" type="ped_pedestrian">
        <personTrip from="694836603" to="23510371" modes="public"/>
    </person>
    <person id="ped151" depart="2551.94" type="ped_pedestrian">
        <personTrip from="494297577#0" to="255797402#0" modes="public"/>
    </person>
    <person id="ped152" depart="2568.84" type="ped_pedestrian">
        <personTrip from="-28247401" to="-255729776" modes="public"/>
    </person>
    <person id="ped153" depart="2585.74" type="ped_pedestrian">
        <personTrip from="-700440130#0" to="689912267#0" modes="public"/>
    </person>
    <person id="ped154" depart="2602.64" type="ped_pedestrian">
        <personTrip from="439271815#1" to="56028463#1" modes="public"/>
    </person>
    <person id="ped155" depart="2619.54" type="ped_pedestrian">
        <personTrip from="689912266" to="-378479743#5" modes="public"/>
    </person>
    <person id="ped156" depart="2636.44" type="ped_pedestrian">
        <personTrip from="-478347392#1" to="-23101679#1" modes="public"/>
    </person>
    <person id="ped157" depart="2653.34" type="ped_pedestrian">
        <personTrip from="4213561#0" to="596666653" modes="public"/>
    </person>
    <person id="ped158" depart="2670.24" type="ped_pedestrian">
        <personTrip from="1185258340#0" to="26730977#2" modes="public"/>
    </person>
    <person id="ped159" depart="2687.14" type="ped_pedestrian">
        <personTrip from="-285188051#1" to="715835444#2" modes="public"/>
    </person>
    <person id="ped160" depart="2704.04" type="ped_pedestrian">
        <personTrip from="563630391" to="884145210#0" modes="public"/>
    </person>
    <person id="ped161" depart="2720.94" type="ped_pedestrian">
        <personTrip from="459339929" to="585579893" modes="public"/>
    </person>
    <person id="ped162" depart="2737.84" type="ped_pedestrian">
        <personTrip from="-1185258342" to="378479743#0" modes="public"/>
    </person>
    <person id="ped163" depart="2754.74" type="ped_pedestrian">
        <personTrip from="-749484709" to="715835444#2" modes="public"/>
    </person>
    <person id="ped164" depart="2771.64" type="ped_pedestrian">
        <personTrip from="439271818#2" to="563630391" modes="public"/>
    </person>
    <person id="ped165" depart="2788.55" type="ped_pedestrian">
        <personTrip from="459339929" to="-539841923#1" modes="public"/>
    </person>
    <person id="ped166" depart="2805.45" type="ped_pedestrian">
        <personTrip from="4305021#0" to="-23248118" modes="public"/>
    </person>
    <person id="ped167" depart="2822.35" type="ped_pedestrian">
        <personTrip from="563630394#1" to="56015406#1" modes="public"/>
    </person>
    <person id="ped168" depart="2839.25" type="ped_pedestrian">
        <personTrip from="-4144040#4" to="465884703#0" modes="public"/>
    </person>
    <person id="ped169" depart="2856.15" type="ped_pedestrian">
        <personTrip from="150032812#2" to="-700440128" modes="public"/>
    </person>
    <person id="ped170" depart="2873.05" type="ped_pedestrian">
        <personTrip from="439271815#1" to="-4195580#2" modes="public"/>
    </person>
    <person id="ped171" depart="2889.95" type="ped_pedestrian">
        <personTrip from="-1185258340#0" to="-359458216" modes="public"/>
    </person>
    <person id="ped172" depart="2906.85" type="ped_pedestrian">
        <personTrip from="-715913363#2" to="563630391" modes="public"/>
    </person>
    <person id="ped173" depart="2923.75" type="ped_pedestrian">
        <personTrip from="83079953" to="-563630394#1" modes="public"/>
    </person>
    <person id="ped174" depart="2940.65" type="ped_pedestrian">
        <personTrip from="283117346#1" to="1185258336#3" modes="public"/>
    </person>
    <person id="ped175" depart="2957.55" type="ped_pedestrian">
        <personTrip from="886404164#1" to="23401995#3" modes="public"/>
    </person>
    <person id="ped176" depart="2974.45" type="ped_pedestrian">
        <personTrip from="715910744#0" to="-23508141#1" modes="public"/>
    </person>
    <person id="ped177" depart="2991.35" type="ped_pedestrian">
        <personTrip from="874725445" to="-35098345" modes="public"/>
    </person>
    <person id="ped178" depart="3008.25" type="ped_pedestrian">
        <personTrip from="77706449" to="-539841923#0" modes="public"/>
    </person>
    <person id="ped179" depart="3025.15" type="ped_pedestrian">
        <personTrip from="-23248118" to="13858859" modes="public"/>
    </person>
    <person id="ped180" depart="3042.05" type="ped_pedestrian">
        <personTrip from="365217758" to="-715835444#1" modes="public"/>
    </person>
    <person id="ped181" depart="3058.95" type="ped_pedestrian">
        <personTrip from="256105105#3" to="182982119#0" modes="public"/>
    </person>
    <person id="ped182" depart="3075.85" type="ped_pedestrian">
        <personTrip from="116556689#0" to="255797398" modes="public"/>
    </person>
    <person id="ped183" depart="3092.75" type="ped_pedestrian">
        <personTrip from="-484022097" to="359458208#0" modes="public"/>
    </person>
    <person id="ped184" depart="3109.65" type="ped_pedestrian">
        <personTrip from="-1153038902#0" to="700440148" modes="public"/>
    </person>
    <person id="ped185" depart="3126.55" type="ped_pedestrian">
        <personTrip from="23508141#0" to="359458219" modes="public"/>
    </person>
    <person id="ped186" depart="3143.45" type="ped_pedestrian">
        <personTrip from="378479743#4" to="319910910#0" modes="public"/>
    </person>
    <person id="ped187" depart="3160.35" type="ped_pedestrian">
        <personTrip from="-987109589#1" to="-150041624#1" modes="public"/>
    </person>
    <person id="ped188" depart="3177.25" type="ped_pedestrian">
        <personTrip from="29895520#2" to="-749484708" modes="public"/>
    </person>
    <person id="ped189" depart="3194.15" type="ped_pedestrian">
        <personTrip from="-715835444#1" to="53207954#0" modes="public"/>
    </person>
    <person id="ped190" depart="3211.05" type="ped_pedestrian">
        <personTrip from="359458219" to="-694836605" modes="public"/>
    </person>
    <person id="ped191" depart="3227.95" type="ped_pedestrian">
        <personTrip from="-700440130#0" to="1185258342" modes="public"/>
    </person>
    <person id="ped192" depart="3244.85" type="ped_pedestrian">
        <personTrip from="1185258337" to="-689756683" modes="public"/>
    </person>
    <person id="ped193" depart="3261.75" type="ped_pedestrian">
        <personTrip from="-255729776" to="1287285290#2" modes="public"/>
    </person>
    <person id="ped194" depart="3278.65" type="ped_pedestrian">
        <personTrip from="715910744#1" to="319910922" modes="public"/>
    </person>
    <person id="ped195" depart="3295.55" type="ped_pedestrian">