<?xml version="1.0" encoding="UTF-8"?>

<!-- generated on 2024-10-17 18:37:53.364741 by randomTrips.py UNKNOWN
<configuration>
    <net-file value="osm.net.xml.gz"/>
    <output-trip-file value="osm.bicycle.trips.xml"/>
    <route-file value="osm.bicycle.rou.xml"/>
    <prefix value="bike"/>
    <trip-attributes value="departLane=&quot;best&quot;"/>
    <fringe-start-attributes value="departSpeed=&quot;max&quot;"/>
    <vehicle-class value="bicycle"/>
    <fringe-factor value="2"/>
    <vclass value="bicycle"/>
    <via-edge-types value="highway.motorway,highway.motorway_link,highway.trunk_link,highway.primary_link,highway.secondary_link,highway.tertiary_link"/>
    <max-distance value="8000.0"/>
    <remove-loops value="True"/>
    <validate value="True"/>
    <insertion-density value="6.0"/>
</configuration>
-->

<!-- generated on 2024-10-17 18:37:53 by Eclipse SUMO duarouter Version 1.20.0
<configuration xmlns:xsi="http://www.w3.org/2001/XMLSchema-instance" xsi:noNamespaceSchemaLocation="http://sumo.dlr.de/xsd/duarouterConfiguration.xsd">

    <input>
        <net-file value="osm.net.xml.gz"/>
        <route-files value="osm.bicycle.trips.xml"/>
    </input>

    <output>
        <output-file value="osm.bicycle.rou.xml"/>
        <alternatives-output value="NUL"/>
    </output>

    <processing>
        <remove-loops value="true"/>
    </processing>

    <time>
        <begin value="0.0"/>
        <end value="3600.0"/>
    </time>

    <report>
        <no-warnings value="true"/>
        <ignore-errors value="true"/>
        <no-step-log value="true"/>
    </report>

</configuration>
-->

<routes xmlns:xsi="http://www.w3.org/2001/XMLSchema-instance" xsi:noNamespaceSchemaLocation="http://sumo.dlr.de/xsd/routes_file.xsd">
    <vType id="bike_bicycle" vClass="bicycle"/>
    <vehicle id="bike0" type="bike_bicycle" depart="0.00" departLane="best">
        <route edges="28247397#1 28247401 624481020#4 689912267#0 214812786 378479740#1 -700440136 29895519#1 886547965#1 -886547965#1 29895519#2 29895520#0 -1185258339"/>
    </vehicle>
    <vehicle id="bike1" type="bike_bicycle" depart="25.65" departLane="best">
        <route edges="-4295817#0 -700440128 -700440130#1 -700440130#0 -196656222#2 -196656222#1 -196656222#0 -53207957 150041579#0 359458208#2 -884145210#1 -884145210#0 -359458219"/>
    </vehicle>
    <vehicle id="bike2" type="bike_bicycle" depart="51.30" departLane="best">
        <route edges="38115188 150041593 196656222#0 196656222#1 196656222#2 700440130#0 286497563"/>
    </vehicle>
    <vehicle id="bike3" type="bike_bicycle" depart="76.94" departLane="best" departSpeed="max">
        <route edges="694836605 -694836604 70205228#1 -715802321 -29895519#2 -886547965#0 886547965#0 -29895519#1 -150041716#2 -150041716#1 -150041716#0 -150041594#1 150041624#0 150041624#1 150041624#2"/>
    </vehicle>
    <vehicle id="bike4" type="bike_bicycle" depart="102.59" departLane="best">
        <route edges="797259708#1 -150032770#6 -150032770#5 -150032770#2 -150032770#1 -150032770#0 327864903#0 327864903#1 218848625#1 539841923#0 539841923#1 -23015831 -75392301#1 -75392301#0 378479743#2 378479743#3 378479743#4 378479743#5 378479743#6 -1265069358#1"/>
    </vehicle>
    <vehicle id="bike5" type="bike_bicycle" depart="128.24" departLane="best">
        <route edges="327864903#1 218848625#1 539841923#0 539841923#1 -23015831 -75392301#1 -75392301#0 -378479743#1 -378479743#0 700440131 506015829#1"/>
    </vehicle>
    <vehicle id="bike6" type="bike_bicycle" depart="153.89" departLane="best">
        <route edges="1185258340#0 1153038902#2 1153038902#4 -715835444#2 -715835444#1 -4195580#2 -4195580#1 -4195580#0 4144040#1 4144040#2 -484022097 -4195610#2 -4195610#0 23015831 -539841923#1 -539841923#0 -218848625#1 -327864903#1"/>
    </vehicle>
    <vehicle id="bike7" type="bike_bicycle" depart="179.54" departLane="best" departSpeed="max">
        <route edges="285188050 -4144040#1 4195580#0 4195580#1 4195580#2 715835444#1 715835444#2 715835444#3 150041551#0 150041551#1 -4295817#3 -4295817#1 -4295817#0 -700440128 -700440130#1 -700440130#0 -196656222#2 -196656222#1 -196656222#0 -53207957 150041579#0 150041579#2 150041578"/>
    </vehicle>
    <vehicle id="bike8" type="bike_bicycle" depart="205.18" departLane="best" departSpeed="max">
        <route edges="-35771741 28230108 150041636#1 150041636#2 519402125#0 -150041594#1 -1290085526#1 -700440129 -700440128 -700440130#1 -700440130#0 -150041699#1 196656222#0"/>
    </vehicle>
    <vehicle id="bike9" type="bike_bicycle" depart="230.83" departLane="best">
        <route edges="50507098#0 53207959#3 150041593 196656222#0 196656222#1 196656222#2 150041699#2 -150041624#2 -150041624#1 115485617 -115485620#0"/>
    </vehicle>
    <vehicle id="bike10" type="bike_bicycle" depart="256.48" departLane="best">
        <route edges="-494297577#1 -494297577#0 182982119#0 881694399 -957138676#0 35771743#1"/>
    </vehicle>
    <vehicle id="bike12" type="bike_bicycle" depart="307.78" departLane="best">
        <route edges="-75392301#1 -75392301#0 -378479743#1 -378479743#0 253230759#0 23599727#0 23599727#1 -465884704 -624481020#0"/>
    </vehicle>
    <vehicle id="bike13" type="bike_bicycle" depart="333.42" departLane="best" departSpeed="max">
        <route edges="150041636#2 519402125#0 -150041594#1 -1290085526#1 -700440129 -700440128 -700440130#1 -700440130#0 -196656222#2 -196656222#1 -196656222#0 -1160713521 150041645#4"/>
    </vehicle>
    <vehicle id="bike15" type="bike_bicycle" depart="384.72" departLane="best">
        <route edges="-881694399 -182982119#1 56163443#1 700440137 700440134 715913363#2 1290085525#0 1290085525#1 700440148 378479743#0 378479743#1 378479743#2 378479743#3 378479743#4"/>
    </vehicle>
    <vehicle id="bike16" type="bike_bicycle" depart="410.37" departLane="best">
        <route edges="150041576#1 -150041624#3 -150041624#2 -150041624#1 -150041624#0 150041594#0 56163443#1 700440137 700440134 715913363#2 1290085525#0 1290085525#1 700440148 378479743#0 378479743#1 75392301#0 75392301#1 23015831 -539841923#1 -539841923#0 -218848625#1 -218848625#0"/>
    </vehicle>
    <vehicle id="bike17" type="bike_bicycle" depart="436.02" departLane="best">
        <route edges="-70205228#2 -715802321 -29895519#2 -886547965#0 886547965#0 -29895519#1 -150041716#2 -150041716#1 -150041716#0 -150041594#1 -1290085526#1 -700440129 -700440128 -700440130#1 -700440130#0 -196656222#2 -196656222#1 -196656222#0 -53207957"/>
    </vehicle>
    <vehicle id="bike18" type="bike_bicycle" depart="461.66" departLane="best">
        <route edges="53207959#1 53207959#3 150041593 196656222#0 196656222#1 196656222#2 700440130#0 700440130#1 700440128 700440129 1290085526#0 150041594#0 56163443#1 700440137 700440134 715913363#2 1290085525#0 1290085525#1 700440148 378479743#0 378479743#1 378479743#2 378479743#3 378479743#4 378479743#5 378479743#6 700236092#0 700236092#1 700236093 44973978 506013711#1 149518804#2 149518804#3 23401995#1 23401995#2 23401995#3"/>
    </vehicle>
    <vehicle id="bike19" type="bike_bicycle" depart="487.31" departLane="best">
        <route edges="59591192#2 378479740#1 -700440136 -56163443#3 150041716#0"/>
    </vehicle>
    <vehicle id="bike20" type="bike_bicycle" depart="512.96" departLane="best">
        <route edges="359458217#2 38115188 150041593 196656222#0 196656222#1 196656222#2 700440130#0 700440130#1 700440128 700440129 1290085526#0 150041594#0 56163443#1 700440137 700440134 715913363#2 1290085525#0 1290085525#1 -4144040#4 -4144040#3 -484022097 -4195610#2 13858853"/>
    </vehicle>
    <vehicle id="bike21" type="bike_bicycle" depart="538.61" departLane="best" departSpeed="max">
        <route edges="-359458205 884145210#0 884145210#1 -359458208#2 149518769#1 38115188 150041593 196656222#0 196656222#1 196656222#2 700440130#0 700440130#1 700440128 700440129 1290085526#0 150041594#0 56163443#1 700440137 700440134 715913363#2 1290085525#0 1290085525#1 -4144040#4 -4144040#3 -484022097"/>
    </vehicle>
    <vehicle id="bike22" type="bike_bicycle" depart="564.26" departLane="best">
        <route edges="-150041576#1 700440130#0 700440130#1 700440128 700440129 1290085526#0 150041594#0 56163443#1 700440137 700440134 715913363#2 1290085525#0 1290085525#1 700440148 378479743#0 378479743#1"/>
    </vehicle>
    <vehicle id="bike23" type="bike_bicycle" depart="589.90" departLane="best">
        <route edges="-150041682 23248109#1 -378479743#3 -378479743#2 -378479743#1 -378479743#0 700440131 506015829#1 506015832 59591192#1 59591192#2 378479740#1 -700440136 -56163443#3 -150041594#1 150041624#0 150041624#1 150041624#2 150041624#3 43206316"/>
    </vehicle>
    <vehicle id="bike24" type="bike_bicycle" depart="615.55" departLane="best">
        <route edges="28230108 150041636#1 150041636#2 519402125#0 56163443#1 29895519#1 886547965#1 -886547965#1 29895519#2 715802321 -70205228#1 694836604 -694836605"/>
    </vehicle>
    <vehicle id="bike26" type="bike_bicycle" depart="666.85" departLane="best">
        <route edges="4195580#2 148061769 715911183#0"/>
    </vehicle>
    <vehicle id="bike27" type="bike_bicycle" depart="692.50" departLane="best">
        <route edges="-28247401 -28247397#1 -28247397#0 -4209642 -1244524929 700440148 378479743#0 378479743#1 378479743#2 378479743#3 378479743#4 -365216932 365216933 -378479743#4 -23248109#1 -23248109#0"/>
    </vehicle>
    <vehicle id="bike28" type="bike_bicycle" depart="718.14" departLane="best">
        <route edges="257510648 257510647#1 253230762 700440138 700440139 -378479743#6 -378479743#5 -378479743#4"/>
    </vehicle>
    <vehicle id="bike29" type="bike_bicycle" depart="743.79" departLane="best" departSpeed="max">
        <route edges="-24507771 -1287285290#3 539841923#0 539841923#1 -23015831 4195610#0 4195610#2 484022097 -4144040#2 -4144040#1 4195580#0 4195580#1 4195580#2 715835444#1 23508141#1 70205228#0"/>
    </vehicle>
    <vehicle id="bike30" type="bike_bicycle" depart="769.44" departLane="best">
        <route edges="984768176#1 984768176#2 4019053#2 -150032770#6 -150032770#5 -150032770#2 -150032770#1 -150032770#0 327864903#0 327864903#1 218848625#1 539841923#0 539841923#1 -23015831 -75392301#1 -75392301#0 -378479743#1 -378479743#0 253230759#0 253230759#1"/>
    </vehicle>
    <vehicle id="bike31" type="bike_bicycle" depart="795.09" departLane="best">
        <route edges="150041636#1 150041636#2 519402125#0 56163443#1 29895519#1 886547965#1 -886547965#1 29895519#2"/>
    </vehicle>
    <vehicle id="bike33" type="bike_bicycle" depart="846.38" departLane="best" departSpeed="max">
        <route edges="-359458205 884145210#0 884145210#1 -359458208#2 149518769#1 38115188 150041593 196656222#0 196656222#1 196656222#2 700440130#0 700440130#1 700440128 700440129 1290085526#0 150041594#0 56163443#1 700440137 700440134 715913363#2 1290085525#0 1290085525#1 700440148 378479743#0 378479743#1 378479743#2 378479743#3 378479743#4 378479743#5 378479743#6 -1265069358#1 -1265069360#0"/>
    </vehicle>
    <vehicle id="bike34" type="bike_bicycle" depart="872.03" departLane="best">
        <route edges="-494297577#0 56163443#1 700440137 700440134 715913363#2 1290085525#0 1290085525#1 -4144040#4 -4144040#3 -484022097 -4195610#2"/>
    </vehicle>
    <vehicle id="bike35" type="bike_bicycle" depart="897.68" departLane="best">
        <route edges="-29895520#1 -29895520#0 -29895519#2 -886547965#0 886547965#0 -29895519#1 700440137 700440134 214812788#2 73372559"/>
    </vehicle>
    <vehicle id="bike37" type="bike_bicycle" depart="948.98" departLane="best">
        <route edges="285188051#2 -285188051#0 75392301#1 4195610#0 4195610#2 484022097 -4144040#2 -4144040#1 4195580#0 4195580#1 4195580#2 -715910744#1 -715910744#0"/>
    </vehicle>
    <vehicle id="bike38" type="bike_bicycle" depart="974.62" departLane="best">
        <route edges="700440133 378479740#1 -700440136 -56163443#3 -150041594#1 150041624#0 115485617 115485620#1"/>
    </vehicle>
    <vehicle id="bike39" type="bike_bicycle" depart="1000.27" departLane="best">
        <route edges="-4195580#0 4144040#1 4144040#2 -484022097 -4195610#2 -409784476"/>
    </vehicle>
    <vehicle id="bike40" type="bike_bicycle" depart="1025.92" departLane="best">
        <route edges="-150041645#4 359458217#2 38115188 150041593 196656222#0 196656222#1 196656222#2 700440130#0 700440130#1 700440128 4295817#0 -23508224 -715835444#5 -715835444#4 -715835444#3 -715835444#2 -715835444#1 -4195580#2"/>
    </vehicle>
    <vehicle id="bike41" type="bike_bicycle" depart="1051.57" departLane="best">
        <route edges="196656222#1 196656222#2 700440130#0 700440130#1 700440128 700440129"/>
    </vehicle>
    <vehicle id="bike42" type="bike_bicycle" depart="1077.22" departLane="best" departSpeed="max">
        <route edges="-749484712#1 1290085525#1 -684761787#0 59591192#0 59591192#1 59591192#2 378479740#1 -700440136 -56163443#3 -150041594#1 -1290085526#1 -700440129 -700440128 -700440130#1 -700440130#0 -196656222#2 -196656222#1 -196656222#0 -1160713521 150041645#4 -359458213"/>
    </vehicle>
    <vehicle id="bike43" type="bike_bicycle" depart="1102.86" departLane="best" departSpeed="max">
        <route edges="987109590 987109589#1 689756683 -23248118 23248109#0 23248109#1 -378479743#3 -378479743#2 -378479743#1 -378479743#0 253230759#0 253230759#1 -1244524929 -4144040#4 -4144040#3 -484022097 -4195610#2 13858853"/>
    </vehicle>
    <vehicle id="bike44" type="bike_bicycle" depart="1128.51" departLane="best">
        <route edges="150041636#1 150041636#2 519402125#0 56163443#1 700440137 700440134 715913363#2 1290085525#0 1290085525#1 700440148 378479743#0 378479743#1 75392301#0 75392301#1 23015831 -539841923#1 -539841923#0 -218848625#1 -218848625#0 -13858859"/>
    </vehicle>
    <vehicle id="bike45" type="bike_bicycle" depart="1154.16" departLane="best">
        <route edges="-150041716#1 -150041716#0 -150041551#3 -150041551#1 -150041551#0 -715835444#3 -715835444#2 -23508141#0 23508142#0 23508142#1"/>
    </vehicle>
    <vehicle id="bike47" type="bike_bicycle" depart="1205.46" departLane="best">
        <route edges="-150032770#0 327864903#0 327864903#1 218848625#1 539841923#0 539841923#1 -23015831 4195610#0 4195610#2 484022097 -4144040#2 -4144040#1 4195580#0 4195580#1 4195580#2 715835444#1 23508141#1 70205228#0 70205228#1 70205228#2"/>
    </vehicle>
    <vehicle id="bike48" type="bike_bicycle" depart="1231.10" departLane="best">
        <route edges="987109589#1 689756683 -23248118 23248109#0 23248109#1 378479743#4 378479743#5 378479743#6 700236092#0 700236092#1 700236093 44973978 506013711#1 4019053#2 -150032770#6 -150032770#5 -150032770#2 -150032770#1"/>
    </vehicle>
    <vehicle id="bike50" type="bike_bicycle" depart="1282.40" departLane="best">
        <route edges="-1185258336#0 1153038902#4 -715835444#2 -715835444#1 60263960 116556688 43135644#0 378479740#1"/>
    </vehicle>
    <vehicle id="bike51" type="bike_bicycle" depart="1308.05" departLane="best" departSpeed="max">
        <route edges="35098345 -378479743#0 700440131 506015829#1 506015832 700440133 -715911183#0 -148061769 715835444#1 715835444#2 715835444#3 150041551#0"/>
    </vehicle>
    <vehicle id="bike53" type="bike_bicycle" depart="1359.34" departLane="best">
        <route edges="150041716#2 700440137 700440134 715913363#2 1290085525#0 1290085525#1 700440148 378479743#0 378479743#1 378479743#2 378479743#3 378479743#4 378479743#5 378479743#6 700236092#0 700236092#1 700236093 44973978 984768175"/>
    </vehicle>
    <vehicle id="bike54" type="bike_bicycle" depart="1384.99" departLane="best">
        <route edges="1153038902#4 715835444#3 150041551#0 150041551#1 -4295817#3 750168165"/>
    </vehicle>
    <vehicle id="bike55" type="bike_bicycle" depart="1410.64" departLane="best" departSpeed="max">
        <route edges="638694840#0 987109589#0 987109589#1 689756683 -23248118 23248109#0 23248109#1 -378479743#3 -378479743#2 -378479743#1 -378479743#0 700440131 506015829#1 506015832 700440133 -715911183#0 -148061769 -4195580#2"/>
    </vehicle>
    <vehicle id="bike56" type="bike_bicycle" depart="1436.29" departLane="best">
        <route edges="1290085526#0 150041594#0 56163443#1 700440137 700440134 715913363#2 1290085525#0 1290085525#1 700440148 378479743#0 378479743#1 75392301#0 285188051#0 -285188051#2"/>
    </vehicle>
    <vehicle id="bike57" type="bike_bicycle" depart="1461.94" departLane="best">
        <route edges="700440131 506015829#1 506015832 700440133 -715911183#0 -148061769 60263960"/>
    </vehicle>
    <vehicle id="bike58" type="bike_bicycle" depart="1487.59" departLane="best" departSpeed="max">
        <route edges="-47492539 -13858853 4195610#2 484022097 4144040#3 4144040#4 700440148 253230759#0 253230759#1"/>
    </vehicle>
    <vehicle id="bike59" type="bike_bicycle" depart="1513.23" departLane="best">
        <route edges="23508141#1 70205228#0 70205228#1 70205228#2 29895517 150041716#4 255729778"/>
    </vehicle>
    <vehicle id="bike60" type="bike_bicycle" depart="1538.88" departLane="best">
        <route edges="4195580#1 4195580#2 715835444#1 715835444#2 715835444#3 150041551#0 150041551#1"/>
    </vehicle>
    <vehicle id="bike61" type="bike_bicycle" depart="1564.53" departLane="best">
        <route edges="43135644#0 715913363#2 1290085525#0 1290085525#1 700440148 378479743#0 378479743#1 75392301#0 75392301#1 23015831 -539841923#1 -539841923#0 -218848625#1 -327864903#1 -327864903#0 150032770#0 150032770#1"/>
    </vehicle>
    <vehicle id="bike62" type="bike_bicycle" depart="1590.18" departLane="best">
        <route edges="1153038902#0 1153038902#2 1153038902#4 -715835444#2 -715835444#1 -4195580#2 -4195580#1 -4195580#0 4144040#1 4144040#2 -484022097 -4195610#2 -4195610#0 23015831 -539841923#1 -539841923#0 -218848625#1 -327864903#1 -327864903#0 150032770#0 150032770#1 150032770#2 -572523427"/>
    </vehicle>
    <vehicle id="bike63" type="bike_bicycle" depart="1615.83" departLane="best" departSpeed="max">
        <route edges="-1185258336#4 -1185258337 -1185258336#0 1153038902#4 715835444#3 715835444#4"/>
    </vehicle>
    <vehicle id="bike64" type="bike_bicycle" depart="1641.47" departLane="best" departSpeed="max">
        <route edges="638694840#0 987109589#0 987109589#1 689756683 -23248118 23248109#0 23248109#1 -378479743#3 -378479743#2 -378479743#1 -378479743#0 700440131 506015829#1 506015832"/>
    </vehicle>
    <vehicle id="bike66" type="bike_bicycle" depart="1692.77" departLane="best" departSpeed="max">
        <route edges="638694840#0 987109589#0 987109589#1 689756683 -23248118 23248109#0 23248109#1 -378479743#3 -378479743#2 -378479743#1 -378479743#0 700440131 506015829#1 506015832 700440133 715913363#2 1290085525#0 749484712#1"/>
    </vehicle>
    <vehicle id="bike67" type="bike_bicycle" depart="1718.42" departLane="best">
        <route edges="-150041624#2 -150041624#1 -150041624#0 150041594#0 -150041551#3 -150041551#1 23101679#0 -29895520#3 1153038902#0 1153038902#2 1185258343"/>
    </vehicle>
    <vehicle id="bike68" type="bike_bicycle" depart="1744.07" departLane="best">
        <route edges="-150032770#5 -150032770#2 -150032770#1 -150032770#0 327864903#0 327864903#1 218848625#1 539841923#0 539841923#1 -23015831 4195610#0 4195610#2 484022097 -4144040#2 -4144040#1 4195580#0 4195580#1"/>
    </vehicle>
    <vehicle id="bike69" type="bike_bicycle" depart="1769.71" departLane="best">
        <route edges="4195610#0 4195610#2 484022097 -4144040#2 -4144040#1 4195580#0 4195580#1 4195580#2 715835444#1 715835444#2 -1153038902#4 -1153038902#2 -1153038902#0 29895520#3 -23101679#0"/>
    </vehicle>
    <vehicle id="bike70" type="bike_bicycle" depart="1795.36" departLane="best">
        <route edges="-1185258337 1185258338#0 -1185258340#0 29895520#2 29895520#3 -23101679#0 150041551#1 -4295817#3 -4295817#1 -4295817#0 -700440128 -700440130#1 -700440130#0 -196656222#2 -196656222#1 -196656222#0 -53207957 150041579#0 150041579#2"/>
    </vehicle>
    <vehicle id="bike71" type="bike_bicycle" depart="1821.01" departLane="best">
        <route edges="-4195580#0 4144040#1 4144040#2 4144040#3 4144040#4 1244524929 4209642 28247400#0 28247400#1 -459339931 -465884704 624481020#1"/>
    </vehicle>
    <vehicle id="bike72" type="bike_bicycle" depart="1846.66" departLane="best">
        <route edges="797259708#1 -150032770#6 -150032770#5 -150032770#2 -150032770#1 -150032770#0 327864903#0 327864903#1 218848625#1 539841923#0 539841923#1 -23015831 -75392301#1 -75392301#0 -378479743#1 -378479743#0 700440131 506015829#1 506015832 59591192#1 59591192#2 378479740#1 -700440136 -56163443#3 -150041594#1 -1290085526#1 -700440129 -700440128 -700440130#1 -700440130#0 -196656222#2 -196656222#1 -196656222#0 -53207957 150041579#0 -359458208#1 -359458208#0"/>
    </vehicle>
    <vehicle id="bike73" type="bike_bicycle" depart="1872.31" departLane="best">
        <route edges="38115188 150041593 196656222#0 196656222#1 196656222#2 700440130#0 700440130#1 700440128 700440129 1290085526#0 150041594#0 56163443#1 700440137 700440134 715913363#2 1290085525#0 1290085525#1 700440148 378479743#0 378479743#1 378479743#2 378479743#3 378479743#4"/>
    </vehicle>
    <vehicle id="bike75" type="bike_bicycle" depart="1923.60" departLane="best">
        <route edges="987109589#1 689756683 -23248118 23248109#0 23248109#1 378479743#4 378479743#5 378479743#6 700236092#0 700236092#1 700236093 44973978 506013711#1 149518804#2 149518804#3 26730977#2"/>
    </vehicle>
    <vehicle id="bike76" type="bike_bicycle" depart="1949.25" departLane="best">
        <route edges="-984768176#1 1287285290#0 1287285290#1 1287285290#2 539841923#0 539841923#1 -23015831 -75392301#1 -75392301#0 -378479743#1 -378479743#0 700440131 506015829#1 506015832 59591192#1 59591192#2 59591192#5 519402126 59591191 378491236 150041636#0 -28230108 148061776#1"/>
    </vehicle>
    <vehicle id="bike77" type="bike_bicycle" depart="1974.90" departLane="best">
        <route edges="-196656222#2 -196656222#1 -196656222#0 -53207957 150041579#0 359458208#2 -884145210#1 -884145210#0 -359458219"/>
    </vehicle>
    <vehicle id="bike80" type="bike_bicycle" depart="2051.84" departLane="best">
        <route edges="-150032770#6 -150032770#5 -150032770#2 -150032770#1 -150032770#0 327864903#0 327864903#1 218848625#1 539841923#0 539841923#1 -23015831 4195610#0 4195610#2 484022097 -4144040#2 -4144040#1 4195580#0 4195580#1 4195580#2 715835444#1 715835444#2 715835444#3 715835444#4 715835444#5 23508224"/>
    </vehicle>
    <vehicle id="bike81" type="bike_bicycle" depart="2077.49" departLane="best" departSpeed="max">
        <route edges="-359458205 884145210#0 884145210#1 -359458208#2 149518769#1 38115188 150041593 196656222#0 196656222#1 196656222#2 700440130#0 700440130#1 700440128 700440129 1290085526#0 150041594#0 56163443#1 700440137 700440134 715913363#2"/>
    </vehicle>
    <vehicle id="bike82" type="bike_bicycle" depart="2103.14" departLane="best">
        <route edges="59591192#1 59591192#2 378479740#1 -700440136 -56163443#3 -150041551#3 -150041551#1 -150041551#0"/>
    </vehicle>
    <vehicle id="bike83" type="bike_bicycle" depart="2128.79" departLane="best">
        <route edges="359458213 -150041645#4 359458217#2 38115188 150041593 196656222#0 196656222#1 196656222#2 700440130#0 700440130#1 700440128 4295817#0 -23508224 -715835444#5 -715835444#4 -715835444#3 -715835444#2 -715835444#1 -4195580#2 285156957"/>
    </vehicle>
    <vehicle id="bike84" type="bike_bicycle" depart="2154.43" departLane="best">
        <route edges="-29895520#3 -29895520#2 -29895520#1 -29895520#0 -29895519#2 -886547965#0 886547965#0 -29895519#1 700440137 700440134 715913363#2 1290085525#0 1290085525#1 700440148 378479743#0 378479743#1 378479743#2 378479743#3 378479743#4 -365216932 365216933 -378479743#4 -23248109#1"/>
    </vehicle>
    <vehicle id="bike85" type="bike_bicycle" depart="2180.08" departLane="best">
        <route edges="-715835444#3 -715835444#2 -715835444#1 60263960 116556688 43135644#0 715913363#2 1290085525#0 1290085525#1 700440148 378479743#0 378479743#1 378479743#2 378479743#3 378479743#4 -365216932 365216933 -378479743#4 -23248109#1 150041682"/>
    </vehicle>
    <vehicle id="bike86" type="bike_bicycle" depart="2205.73" departLane="best">
        <route edges="1185258336#2 1185258339 29895520#1 29895520#2 29895520#3 -23101679#0 150041551#1 -4295817#3 -4295817#1 -4295817#0 -700440128 -700440130#1 -700440130#0 150041576#1 43206316 69990712 43206409"/>
    </vehicle>
    <vehicle id="bike87" type="bike_bicycle" depart="2231.38" departLane="best">
        <route edges="-881694399 -182982119#1 -150041551#3 -150041551#1 23101679#0 -29895520#3 -29895520#2 -29895520#1 -29895520#0"/>
    </vehicle>
    <vehicle id="bike88" type="bike_bicycle" depart="2257.03" departLane="best">
        <route edges="-150041645#0 150041699#1 700440130#0 700440130#1 700440128 700440129 1290085526#0 150041594#0 182982119#0 881694399 -957138676#0"/>
    </vehicle>
    <vehicle id="bike89" type="bike_bicycle" depart="2282.67" departLane="best">
        <route edges="-881694399 -182982119#1 -150041551#3 -150041551#1 23101679#0 -29895520#3 1153038902#0 -1185258338#0 1185258336#2"/>
    </vehicle>
    <vehicle id="bike90" type="bike_bicycle" depart="2308.32" departLane="best" departSpeed="max">
        <route edges="378543233#0 378543233#2 378543233#3 395456769#1 24509268 700440138 700440139 -378479743#6 -378479743#5 -378479743#4 -378479743#3 -378479743#2 -378479743#1 -35098345 35098345 378479743#1 75392301#0 285188051#0 285188051#1"/>
    </vehicle>
    <vehicle id="bike91" type="bike_bicycle" depart="2333.97" departLane="best">
        <route edges="957138676#0 -881694399 -182982119#1 56163443#1 700440137 700440134 715913363#2 1290085525#0 1290085525#1 700440148 378479743#0 378479743#1 378479743#2 378479743#3 378479743#4 -365216932 365216933 -378479743#4 -23248109#1 150041682"/>
    </vehicle>
    <vehicle id="bike92" type="bike_bicycle" depart="2359.62" departLane="best" departSpeed="max">
        <route edges="-750168164 -750168166#0 -715835444#4 -715835444#3 -715835444#2 -715835444#1 60263960 116556688 43135644#0 715911183#5 715911183#6 -689912267#0 -624481020#4 -624481020#3 -624481020#1 -624481020#0"/>
    </vehicle>
    <vehicle id="bike93" type="bike_bicycle" depart="2385.27" departLane="best">
        <route edges="59591192#2 -715911183#0 -148061769 -4195580#2 -4195580#1 -4195580#0 -4144040#0"/>
    </vehicle>
    <vehicle id="bike94" type="bike_bicycle" depart="2410.91" departLane="best">
        <route edges="-28247401 -28247397#1 -28247397#0 -4209642 -1244524929 700440148 378479743#0 378479743#1 378479743#2 378479743#3 378479743#4 378479743#5 378479743#6 700236092#0 700236092#1 1125742272"/>
    </vehicle>
    <vehicle id="bike95" type="bike_bicycle" depart="2436.56" departLane="best">
        <route edges="797259708#1 -150032770#6 -150032770#5 -150032770#2 -150032770#1 -150032770#0 327864903#0 327864903#1 218848625#1 539841923#0 539841923#1 -23015831 -75392301#1 -75392301#0 -378479743#1 -378479743#0 700440131 506015829#1 506015832 59591192#1 59591192#2 378479740#1 -700440136 -56163443#3 -150041594#1 150041624#0 150041624#1 150041624#2 150041624#3 43206316"/>
    </vehicle>
    <vehicle id="bike96" type="bike_bicycle" depart="2462.21" departLane="best">
        <route edges="-378479743#4 -378479743#3 -378479743#2 -378479743#1 -378479743#0 700440131 506015829#1 506015832 700440133 -715911183#0 -148061769 715835444#1"/>
    </vehicle>
    <vehicle id="bike98" type="bike_bicycle" depart="2513.51" departLane="best">
        <route edges="-150041624#1 -150041624#0 150041594#0 56163443#1 700440137 700440134 -715911183#0 -148061769"/>
    </vehicle>
    <vehicle id="bike99" type="bike_bicycle" depart="2539.15" departLane="best" departSpeed="max">
        <route edges="987109590 987109589#1 689756683 -23248118 23248109#0 23248109#1 -378479743#3 -378479743#2 -378479743#1 -378479743#0 700440131 506015829#1 506015832 59591192#1 59591192#2 59591192#5 519402126"/>
    </vehicle>
    <vehicle id="bike100" type="bike_bicycle" depart="2564.80" departLane="best">
        <route edges="-881694399 -182982119#1 -150041551#3 -150041551#1 23101679#0 -29895520#3 1153038902#0 1153038902#2 1153038902#4 715835444#3"/>
    </vehicle>
    <vehicle id="bike102" type="bike_bicycle" depart="2616.10" departLane="best">
        <route edges="1265069358#1 -378479743#6 -378479743#5 -378479743#4 -378479743#3 -378479743#2 -378479743#1 -378479743#0 700440131 506015829#1 506015832 59591192#1 59591192#2 378479740#1 -700440136 -56163443#3 -150041594#1 -1290085526#1 -700440129 -700440128 -700440130#1 -700440130#0 -196656222#2 -196656222#1 -196656222#0 -53207957 150041579#0 -359458208#1 -359458208#0"/>
    </vehicle>
    <vehicle id="bike103" type="bike_bicycle" depart="2641.75" departLane="best" departSpeed="max">
        <route edges="-749484712#1 1290085525#1 700440148 378479743#0 378479743#1 378479743#2 378479743#3 378479743#4 378479743#5 378479743#6 700236092#0 700236092#1 700236093 44973978 506013711#1 149518804#2 149518804#3"/>
    </vehicle>
    <vehicle id="bike104" type="bike_bicycle" depart="2667.39" departLane="best">
        <route edges="-70205228#2 -715802321 -29895519#2 886547965#1"/>
    </vehicle>
    <vehicle id="bike105" type="bike_bicycle" depart="2693.04" departLane="best">
        <route edges="4195580#1 4195580#2 715835444#1 715835444#2 715835444#3 150041551#0 150041551#1 -4295817#3 -4295817#1 -4295817#0 -700440128 -700440130#1 -700440130#0 150041576#1 43206316 69990712 43206409"/>
    </vehicle>
    <vehicle id="bike106" type="bike_bicycle" depart="2718.69" departLane="best">
        <route edges="-526519487 150041624#1 150041624#2 -150041699#2 -196656222#2 -196656222#1 -196656222#0 -53207957 150041579#0 359458208#2 -884145210#1 -884145210#0"/>
    </vehicle>
    <vehicle id="bike107" type="bike_bicycle" depart="2744.34" departLane="best" departSpeed="max">