<?xml version="1.0" encoding="UTF-8"?>

<!-- generated on 2024-10-09 11:27:54.640845 by randomTrips.py UNKNOWN
<configuration>
    <net-file value="osm.net.xml.gz"/>
    <output-trip-file value="osm.truck.trips.xml"/>
    <route-file value="osm.truck.rou.xml"/>
    <prefix value="truck"/>
    <trip-attributes value="departLane=&quot;best&quot;"/>
    <fringe-start-attributes value="departSpeed=&quot;max&quot;"/>
    <vehicle-class value="truck"/>
    <fringe-factor value="5"/>
    <vclass value="truck"/>
    <via-edge-types value="highway.motorway,highway.motorway_link,highway.trunk_link,highway.primary_link,highway.secondary_link,highway.tertiary_link"/>
    <min-distance value="600.0"/>
    <min-distance.fringe value="10.0"/>
    <remove-loops value="True"/>
    <validate value="True"/>
    <insertion-density value="8.0"/>
</configuration>
-->

<!-- generated on 2024-10-09 11:27:54 by Eclipse SUMO duarouter Version 1.20.0
<configuration xmlns:xsi="http://www.w3.org/2001/XMLSchema-instance" xsi:noNamespaceSchemaLocation="http://sumo.dlr.de/xsd/duarouterConfiguration.xsd">

    <input>
        <net-file value="osm.net.xml.gz"/>
        <route-files value="osm.truck.trips.xml"/>
    </input>

    <output>
        <output-file value="osm.truck.rou.xml"/>
        <alternatives-output value="NUL"/>
    </output>

    <processing>
        <remove-loops value="true"/>
    </processing>

    <time>
        <begin value="0.0"/>
        <end value="3600.0"/>
    </time>

    <report>
        <no-warnings value="true"/>
        <ignore-errors value="true"/>
        <no-step-log value="true"/>
    </report>

</configuration>
-->

<routes xmlns:xsi="http://www.w3.org/2001/XMLSchema-instance" xsi:noNamespaceSchemaLocation="http://sumo.dlr.de/xsd/routes_file.xsd">
    <vType id="truck_truck" vClass="truck"/>
    <vehicle id="truck0" type="truck_truck" depart="0.00" departLane="best">
        <route edges="150041551#2 56163443#1 700440137 700440134 715913363#2 1290085525#0 1290085525#1 700440148 378479743#0 378479743#1 378479743#2 378479743#3 378479743#4 378479743#5 378479743#6 -1265069358#1 -1265069360#0"/>
    </vehicle>
    <vehicle id="truck1" type="truck_truck" depart="36.98" departLane="best">
        <route edges="4144040#1 4144040#2 4144040#3 4144040#4 700440148 700440131 506015829#1 506015832 700440133 378479740#1 -700440136 -56163443#3 -150041594#1 -1290085526#1 -700440129 -700440128 -700440130#1 -700440130#0 -196656222#2 -196656222#1 -196656222#0"/>
    </vehicle>
    <vehicle id="truck2" type="truck_truck" depart="73.96" departLane="best">
        <route edges="53207959#1 53207959#3 150041593 196656222#0 196656222#1 196656222#2 700440130#0 700440130#1 700440128 700440129 1290085526#0 150041594#0 56163443#1 700440137 700440134 715913363#2 1290085525#0 1290085525#1 700440148 378479743#0 378479743#1 378479743#2 378479743#3 378479743#4 378479743#5 378479743#6 -1265069358#1 -1265069360#0"/>
    </vehicle>
    <vehicle id="truck4" type="truck_truck" depart="147.91" departLane="best">
        <route edges="53207959#1 53207959#3 150041593 196656222#0 196656222#1 196656222#2 700440130#0 700440130#1 700440128 700440129 1290085526#0 150041594#0 56163443#1 700440137 700440134 715913363#2 1290085525#0 1290085525#1 -4144040#4"/>
    </vehicle>
    <vehicle id="truck5" type="truck_truck" depart="184.89" departLane="best" departSpeed="max">
        <route edges="4144040#0 4195580#0 4195580#1 4195580#2 60263960 116556688 43135644#0 378479740#1 -700440136 -56163443#3 -150041594#1 -1290085526#1 -700440129 -700440128 -700440130#1 -700440130#0"/>
    </vehicle>
    <vehicle id="truck6" type="truck_truck" depart="221.87" departLane="best" departSpeed="max">
        <route edges="1185215707 53207959#0 53207959#1 53207959#3 150041593 196656222#0 196656222#1 196656222#2 700440130#0 700440130#1 700440128 700440129 1290085526#0 150041594#0 56163443#1 700440137 700440134 715913363#2 1290085525#0 1290085525#1 -4144040#4 -4144040#3 -484022097"/>
    </vehicle>
    <vehicle id="truck7" type="truck_truck" depart="258.85" departLane="best">
        <route edges="-378479743#5 -378479743#4 -378479743#3 -378479743#2 -378479743#1 -378479743#0 700440131 506015829#1 506015832 700440133 378479740#1 -700440136 -56163443#3 -150041594#1 -1290085526#1 -700440129 -700440128 -700440130#1"/>
    </vehicle>
    <vehicle id="truck8" type="truck_truck" depart="295.83" departLane="best">
        <route edges="38115188 150041593 196656222#0 196656222#1 196656222#2 700440130#0 700440130#1 700440128 700440129 1290085526#0 150041594#0 56163443#1 700440137 700440134 116556686#1 -60263960 715835444#1"/>
    </vehicle>
    <vehicle id="truck10" type="truck_truck" depart="369.79" departLane="best">
        <route edges="395456769#0 395456769#1 24509268 700440138 700440139 -378479743#6 -378479743#5 -378479743#4 -378479743#3 -378479743#2 -378479743#1 -378479743#0 700440131 506015829#1 506015832 700440133 378479740#1 -700440136 -56163443#3 -150041594#1 -1290085526#1 -700440129 4295817#0 -23508224"/>
    </vehicle>
    <vehicle id="truck11" type="truck_truck" depart="406.77" departLane="best" departSpeed="max">
        <route edges="51873805 60263960 116556688 43135644#0 378479740#1 -700440136 -56163443#3 -150041594#1 -1290085526#1 -700440129 -700440128 -700440130#1 -700440130#0 -196656222#2 -196656222#1 -196656222#0 -53207957"/>
    </vehicle>
    <vehicle id="truck13" type="truck_truck" depart="480.72" departLane="best" departSpeed="max">
        <route edges="150041565 700440130#0 700440130#1 700440128 700440129 1290085526#0 150041594#0 56163443#1 700440137 700440134 116556686#1 -60263960 -4195580#2 -4195580#1 -4195580#0 -4144040#0"/>
    </vehicle>
    <vehicle id="truck15" type="truck_truck" depart="554.68" departLane="best">
        <route edges="700440130#1 700440128 700440129 1290085526#0 150041594#0 56163443#1 700440137 700440134 715913363#2 1290085525#0 1290085525#1 700440148 378479743#0 378479743#1 378479743#2 378479743#3 378479743#4"/>
    </vehicle>
    <vehicle id="truck16" type="truck_truck" depart="591.66" departLane="best">
        <route edges="150041594#0 56163443#1 700440137 700440134 715913363#2 1290085525#0 1290085525#1 700440148 378479743#0 378479743#1 378479743#2 378479743#3 378479743#4 378479743#5 378479743#6 700236092#0 700236092#1 700236093 44973978"/>
    </vehicle>
    <vehicle id="truck17" type="truck_truck" depart="628.64" departLane="best">
        <route edges="53207959#1 53207959#3 150041593 196656222#0 196656222#1 196656222#2 700440130#0 700440130#1 700440128 700440129 1290085526#0 150041594#0 56163443#1 700440137 700440134 116556686#1 -60263960 -4195580#2 -4195580#1 -4195580#0 -4144040#0"/>
    </vehicle>
    <vehicle id="truck18" type="truck_truck" depart="665.62" departLane="best">
        <route edges="73372559 -689912267#0 -624481020#4 -624481020#3 -624481020#1 -624481020#0 624481020#0 624481020#1 624481020#2 624481020#4 689912267#0 214812786 378479740#1 -700440136 -56163443#3 -150041594#1 -1290085526#1 -700440129 -700440128 -700440130#1 -700440130#0 -150041565"/>
    </vehicle>
    <vehicle id="truck19" type="truck_truck" depart="702.60" departLane="best">
        <route edges="150041593 196656222#0 196656222#1 196656222#2 700440130#0 700440130#1 700440128 700440129 1290085526#0 150041594#0 56163443#1 700440137 700440134 715913363#2 1290085525#0"/>
    </vehicle>
    <vehicle id="truck20" type="truck_truck" depart="739.57" departLane="best" departSpeed="max">
        <route edges="150041565 700440130#0 700440130#1 700440128 700440129 1290085526#0 150041594#0 56163443#1 700440137 700440134 214812788#2 73372559 -689912267#0"/>
    </vehicle>
    <vehicle id="truck22" type="truck_truck" depart="813.53" departLane="best">
        <route edges="196656222#1 196656222#2 700440130#0 700440130#1 700440128 700440129 1290085526#0 150041594#0 56163443#1 700440137 700440134 116556686#1 -60263960 -4195580#2 -4195580#1 -4195580#0 -4144040#0"/>
    </vehicle>
    <vehicle id="truck23" type="truck_truck" depart="850.51" departLane="best">
        <route edges="149518769#1 38115188 150041593 196656222#0 196656222#1 196656222#2 700440130#0 700440130#1 700440128 700440129 1290085526#0 150041594#0 56163443#1 700440137 700440134 715913363#2 1290085525#0 1290085525#1 700440148 378479743#0 378479743#1 75392301#0"/>
    </vehicle>
    <vehicle id="truck24" type="truck_truck" depart="887.49" departLane="best">
        <route edges="38115188 150041593 196656222#0 196656222#1 196656222#2 700440130#0 700440130#1 700440128 700440129 1290085526#0 150041594#0 56163443#1 700440137 700440134 715913363#2 1290085525#0 1290085525#1 700440148 378479743#0 378479743#1 378479743#2 378479743#3 378479743#4 378479743#5 378479743#6 700236092#0 700236092#1 700236093 44973978 506013711#1 4019053#2 -150032770#6 -150032770#5 -150032770#2 -150032770#1 -150032770#0 150032770#0 150032770#1 150032770#2 150032770#5 150032770#6 103958941#0"/>
    </vehicle>
    <vehicle id="truck25" type="truck_truck" depart="924.47" departLane="best">
        <route edges="700440131 506015829#1 506015832 700440133 378479740#1 -700440136 -56163443#3 -150041594#1 -1290085526#1 -700440129 -700440128 -700440130#1 -700440130#0 -196656222#2 -196656222#1 -196656222#0 -53207957"/>
    </vehicle>
    <vehicle id="truck26" type="truck_truck" depart="961.45" departLane="best">
        <route edges="378479753 23248109#1 -378479743#3 -378479743#2 -378479743#1 -378479743#0 700440131 506015829#1 506015832 700440133 116556686#1 -60263960 715835444#1 -23508141#0 23508142#0 23508142#1"/>
    </vehicle>
    <vehicle id="truck27" type="truck_truck" depart="998.42" departLane="best" departSpeed="max">
        <route edges="1185215707 53207959#0 53207959#1 53207959#3 150041593 196656222#0 196656222#1 196656222#2 700440130#0 700440130#1 700440128 700440129 1290085526#0 150041594#0 56163443#1 700440137 700440134 715913363#2 1290085525#0 1290085525#1 700440148 378479743#0 378479743#1 75392301#0 75392301#1 4195610#0 4195610#2"/>
    </vehicle>
    <vehicle id="truck28" type="truck_truck" depart="1035.40" departLane="best">
        <route edges="-378479743#6 -378479743#5 -378479743#4 -378479743#3 -378479743#2 -378479743#1 -378479743#0 700440131 506015829#1 506015832 700440133 378479740#1 -700440136 -56163443#3 -150041594#1 -1290085526#1 -700440129 -700440128 -700440130#1 -700440130#0 -196656222#2 -196656222#1"/>
    </vehicle>
    <vehicle id="truck29" type="truck_truck" depart="1072.38" departLane="best">
        <route edges="-378479743#1 -378479743#0 700440131 506015829#1 506015832 700440133 378479740#1 -700440136 -56163443#3 -150041594#1 -1290085526#1 -700440129 -700440128 -700440130#1 -700440130#0 -196656222#2"/>
    </vehicle>
    <vehicle id="truck30" type="truck_truck" depart="1109.36" departLane="best">
        <route edges="196656222#1 196656222#2 700440130#0 700440130#1 700440128 700440129 1290085526#0 150041594#0 56163443#1 700440137 700440134 715913363#2 1290085525#0 1290085525#1 700440148"/>
    </vehicle>
    <vehicle id="truck31" type="truck_truck" depart="1146.34" departLane="best" departSpeed="max">
        <route edges="624481020#0 624481020#1 624481020#2 624481020#4 689912267#0 214812786 378479740#1 -700440136 -56163443#3 -150041594#1 -1290085526#1 -700440129 -700440128 -700440130#1 -700440130#0 -150041565"/>
    </vehicle>
    <vehicle id="truck32" type="truck_truck" depart="1183.32" departLane="best">
        <route edges="1265069358#1 -378479743#6 -378479743#5 -378479743#4 -378479743#3 -378479743#2 -378479743#1 -378479743#0 700440131 506015829#1 506015832 700440133 378479740#1 -700440136 -56163443#3 -150041551#3 -4295817#3"/>
    </vehicle>
    <vehicle id="truck33" type="truck_truck" depart="1220.30" departLane="best" departSpeed="max">
        <route edges="492925920#0 492925920#1 395456768 395456769#0 395456769#1 24509268 700440138 700440139 -378479743#6 -378479743#5 -378479743#4 -378479743#3 -378479743#2 -378479743#1 -378479743#0 700440131 506015829#1 506015832 700440133 378479740#1 -700440136 -56163443#3 -150041594#1 -1290085526#1 -700440129 -700440128 -700440130#1 -700440130#0 -196656222#2 -196656222#1"/>
    </vehicle>
    <vehicle id="truck34" type="truck_truck" depart="1257.28" departLane="best" departSpeed="max">
        <route edges="150041565 700440130#0 700440130#1 700440128 700440129 1290085526#0 150041594#0 56163443#1 700440137 700440134 715913363#2 1290085525#0 1290085525#1 700440148 378479743#0 378479743#1 378479743#2 378479743#3 378479743#4 378479743#5 378479743#6 -1265069358#1 -1265069360#0"/>
    </vehicle>
    <vehicle id="truck35" type="truck_truck" depart="1294.25" departLane="best">
        <route edges="-23015831 4195610#0 4195610#2 484022097 4144040#3 4144040#4 700440148 700440131 506015829#1 506015832 700440133 378479740#1 -700440136 -56163443#3 -150041594#1 -1290085526#1 -700440129 -700440128"/>
    </vehicle>
    <vehicle id="truck36" type="truck_truck" depart="1331.23" departLane="best">
        <route edges="700440131 506015829#1 506015832 700440133 378479740#1 -700440136 -56163443#3 -150041594#1 -1290085526#1 -700440129 -700440128 -700440130#1 -700440130#0 -196656222#2 -196656222#1 -196656222#0"/>
    </vehicle>
    <vehicle id="truck37" type="truck_truck" depart="1368.21" departLane="best">
        <route edges="700440130#1 700440128 700440129 1290085526#0 150041594#0 56163443#1 700440137 700440134 116556686#1 -60263960 -4195580#2 -4195580#1 -4195580#0 -4144040#0"/>
    </vehicle>
    <vehicle id="truck39" type="truck_truck" depart="1442.17" departLane="best" departSpeed="max">
        <route edges="1185215707 53207959#0 53207959#1 53207959#3 150041593 196656222#0 196656222#1 196656222#2 700440130#0 700440130#1 700440128 700440129 1290085526#0 150041594#0 56163443#1 700440137 700440134 715913363#2 1290085525#0 1290085525#1 700440148"/>
    </vehicle>
    <vehicle id="truck40" type="truck_truck" depart="1479.15" departLane="best">
        <route edges="53207959#0 53207959#1 53207959#3 150041593 196656222#0 196656222#1 196656222#2 700440130#0 700440130#1 700440128 700440129 1290085526#0 150041594#0 56163443#1 700440137 700440134 214812788#2 73372559 -689912267#0"/>
    </vehicle>
    <vehicle id="truck41" type="truck_truck" depart="1516.13" departLane="best">
        <route edges="53207959#3 150041593 196656222#0 196656222#1 196656222#2 700440130#0 700440130#1 700440128 700440129 1290085526#0 150041594#0 56163443#1 700440137 700440134 715913363#2 1290085525#0 1290085525#1 -4144040#4 -4144040#3 -484022097"/>
    </vehicle>
    <vehicle id="truck42" type="truck_truck" depart="1553.11" departLane="best">
        <route edges="150041580 149518769#1 38115188 150041593 196656222#0 196656222#1 196656222#2 700440130#0 700440130#1 700440128 700440129 1290085526#0 150041594#0 56163443#1 700440137 700440134 116556686#1 -60263960"/>
    </vehicle>
    <vehicle id="truck43" type="truck_truck" depart="1590.08" departLane="best" departSpeed="max">
        <route edges="1185215707 53207959#0 53207959#1 53207959#3 150041593 196656222#0 196656222#1 196656222#2 700440130#0 700440130#1 700440128 700440129 1290085526#0 150041594#0 56163443#1 700440137 700440134 214812788#2 73372559 -689912267#0"/>
    </vehicle>
    <vehicle id="truck44" type="truck_truck" depart="1627.06" departLane="best">
        <route edges="395456768 395456769#0 395456769#1 24509268 700440138 700440139 -378479743#6 -378479743#5 -378479743#4 -378479743#3 -378479743#2 -378479743#1 -378479743#0 700440131 506015829#1 506015832 700440133 378479740#1 -700440136 -56163443#3 -150041594#1 -1290085526#1 -700440129 -700440128 -700440130#1 -700440130#0 -196656222#2 -196656222#1 -196656222#0 -53207957 150041579#0 150041579#2 150041578"/>
    </vehicle>
    <vehicle id="truck45" type="truck_truck" depart="1664.04" departLane="best" departSpeed="max">
        <route edges="1185215707 53207959#0 53207959#1 53207959#3 150041593 196656222#0 196656222#1 196656222#2 700440130#0 700440130#1 700440128 700440129 1290085526#0 150041594#0 56163443#1 700440137 700440134 214812788#2 73372559 -689912267#0 -624481020#4 -624481020#3 -624481020#1"/>
    </vehicle>
    <vehicle id="truck47" type="truck_truck" depart="1738.00" departLane="best">
        <route edges="-378479743#5 -378479743#4 -378479743#3 -378479743#2 -378479743#1 -378479743#0 700440131 506015829#1 506015832 700440133 378479740#1 -700440136 -56163443#3 182982119#0 881694399"/>
    </vehicle>
    <vehicle id="truck49" type="truck_truck" depart="1811.96" departLane="best" departSpeed="max">
        <route edges="150041565 700440130#0 700440130#1 700440128 700440129 1290085526#0 150041594#0 56163443#1 700440137 700440134 715913363#2 1290085525#0 1290085525#1 700440148 378479743#0 378479743#1 378479743#2 378479743#3 -23248109#1"/>
    </vehicle>
    <vehicle id="truck50" type="truck_truck" depart="1848.93" departLane="best">
        <route edges="4144040#2 4144040#3 4144040#4 700440148 700440131 506015829#1 506015832 700440133 378479740#1 -700440136 -56163443#3 -150041594#1 -1290085526#1 -700440129 -700440128 -700440130#1 -700440130#0 -196656222#2 -196656222#1 -196656222#0 -53207957 150041579#0 150041579#2 150041578 150041580 149518769#1"/>
    </vehicle>
    <vehicle id="truck51" type="truck_truck" depart="1885.91" departLane="best" departSpeed="max">
        <route edges="150041565 700440130#0 700440130#1 700440128 700440129 1290085526#0 150041594#0 56163443#1 700440137 700440134 116556686#1 -60263960 -4195580#2 -4195580#1 -4195580#0 -4144040#0"/>
    </vehicle>
    <vehicle id="truck52" type="truck_truck" depart="1922.89" departLane="best">
        <route edges="23248109#1 -378479743#3 -378479743#2 -378479743#1 -378479743#0 700440131 506015829#1 506015832 700440133 378479740#1 -700440136 -56163443#3 -150041594#1 -1290085526#1 -700440129 -700440128 -700440130#1 -700440130#0 -196656222#2 -196656222#1 -196656222#0 -53207957 150041579#0"/>
    </vehicle>
    <vehicle id="truck54" type="truck_truck" depart="1996.85" departLane="best">
        <route edges="196656222#2 700440130#0 700440130#1 700440128 700440129 1290085526#0 150041594#0 56163443#1 700440137 700440134 116556686#1 -60263960 -4195580#2"/>
    </vehicle>
    <vehicle id="truck55" type="truck_truck" depart="2033.83" departLane="best" departSpeed="max">
        <route edges="492925920#0 492925920#1 395456768 395456769#0 395456769#1 24509268 700440138 700440139 -378479743#6 -378479743#5 -378479743#4 -378479743#3 -378479743#2 -378479743#1 -378479743#0 700440131 506015829#1 506015832 700440133 378479740#1 -700440136 -56163443#3 -150041551#3 -4295817#3"/>
    </vehicle>
    <vehicle id="truck56" type="truck_truck" depart="2070.81" departLane="best">
        <route edges="150041580 149518769#1 38115188 150041593 196656222#0 196656222#1 196656222#2 700440130#0 700440130#1 700440128 700440129 1290085526#0 150041594#0 56163443#1 700440137 700440134 715913363#2 1290085525#0 1290085525#1 700440148 378479743#0 378479743#1 378479743#2 378479743#3 378479743#4 378479743#5 378479743#6 700236092#0 700236092#1 700236093 44973978 506013711#1"/>
    </vehicle>
    <vehicle id="truck57" type="truck_truck" depart="2107.79" departLane="best" departSpeed="max">
        <route edges="624481020#0 624481020#1 624481020#2 624481020#4 689912267#0 214812786 378479740#1 -700440136 -56163443#3 -150041594#1 -1290085526#1 -700440129 -700440128 -700440130#1 -700440130#0 -196656222#2 -196656222#1"/>
    </vehicle>
    <vehicle id="truck58" type="truck_truck" depart="2144.76" departLane="best">
        <route edges="506015829#1 506015832 700440133 378479740#1 -700440136 -56163443#3 -150041594#1 -1290085526#1 -700440129 -700440128 -700440130#1 -700440130#0 -196656222#2 -196656222#1 -196656222#0 -53207957 150041579#0 150041579#2"/>
    </vehicle>
    <vehicle id="truck61" type="truck_truck" depart="2255.70" departLane="best">
        <route edges="149518769#1 38115188 150041593 196656222#0 196656222#1 196656222#2 700440130#0 700440130#1 700440128 700440129 1290085526#0 150041594#0 56163443#1 700440137 700440134 715913363#2 1290085525#0 1290085525#1 700440148 378479743#0 378479743#1 378479743#2 378479743#3 378479743#4 378479743#5 378479743#6 -1265069358#1 -1265069360#0"/>
    </vehicle>
    <vehicle id="truck63" type="truck_truck" depart="2329.66" departLane="best" departSpeed="max">
        <route edges="150041565 700440130#0 700440130#1 700440128 700440129 1290085526#0 150041594#0 56163443#1 700440137 700440134 715913363#2 1290085525#0 1290085525#1 700440148 378479743#0 378479743#1 378479743#2 378479743#3 378479743#4 378479743#5 378479743#6 -1265069358#1 -1265069360#0"/>
    </vehicle>
    <vehicle id="truck64" type="truck_truck" depart="2366.64" departLane="best">
        <route edges="150041593 196656222#0 196656222#1 196656222#2 700440130#0 700440130#1 700440128 700440129 1290085526#0 150041594#0 56163443#1 700440137 700440134 715913363#2 1290085525#0 1290085525#1 700440148 378479743#0 378479743#1 75392301#0 75392301#1 23015831"/>
    </vehicle>
    <vehicle id="truck65" type="truck_truck" depart="2403.62" departLane="best">
        <route edges="-378479743#6 -378479743#5 -378479743#4 -378479743#3 -378479743#2 -378479743#1 -378479743#0 700440131 506015829#1 506015832 700440133 378479740#1 -700440136 -56163443#3 -150041594#1 -1290085526#1"/>
    </vehicle>
    <vehicle id="truck69" type="truck_truck" depart="2551.53" departLane="best" departSpeed="max">
        <route edges="492925920#0 492925920#1 395456768 395456769#0 395456769#1 24509268 700440138 700440139 -378479743#6 -378479743#5 -378479743#4 -378479743#3 -378479743#2 -378479743#1 -378479743#0 700440131 506015829#1 506015832 700440133 378479740#1 -700440136 -56163443#3 -150041594#1 -1290085526#1 -700440129 -700440128 -700440130#1 -700440130#0 -196656222#2 -196656222#1"/>
    </vehicle>
    <vehicle id="truck70" type="truck_truck" depart="2588.51" departLane="best" departSpeed="max">
        <route edges="1185215707 53207959#0 53207959#1 53207959#3 150041593 196656222#0 196656222#1 196656222#2 700440130#0 700440130#1 700440128 700440129 1290085526#0 150041594#0 56163443#1 700440137 700440134 715913363#2 1290085525#0 1290085525#1 700440148 378479743#0 378479743#1 378479743#2 378479743#3 378479743#4 378479743#5 378479743#6"/>
    </vehicle>
    <vehicle id="truck75" type="truck_truck" depart="2773.40" departLane="best" departSpeed="max">
        <route edges="492925920#0 492925920#1 395456768 395456769#0 395456769#1 24509268 700440138 700440139 -378479743#6 -378479743#5 -378479743#4 -378479743#3 -378479743#2 -378479743#1 -378479743#0 700440131 506015829#1 506015832 700440133 378479740#1 -700440136 -56163443#3 -150041551#3 -150041551#1 -150041551#0 715835444#4"/>
    </vehicle>
    <vehicle id="truck76" type="truck_truck" depart="2810.38" departLane="best">
        <route edges="23508224 -4295817#0 700440129 1290085526#0 150041594#0 56163443#1 700440137 700440134 715913363#2 1290085525#0 1290085525#1 700440148 378479743#0 378479743#1 378479743#2 378479743#3 378479743#4 378479743#5 378479743#6 700236092#0 700236092#1 700236093 44973978 506013711#1 4019053#2 -150032770#6 -150032770#5"/>
    </vehicle>
    <vehicle id="truck77" type="truck_truck" depart="2847.36" departLane="best" departSpeed="max">
        <route edges="150041565 700440130#0 700440130#1 700440128 700440129 1290085526#0 150041594#0 56163443#1 700440137 700440134 715913363#2 1290085525#0 1290085525#1 -4144040#4"/>
    </vehicle>
    <vehicle id="truck78" type="truck_truck" depart="2884.34" departLane="best" departSpeed="max">
        <route edges="624481020#0 624481020#1 624481020#2 624481020#4 689912267#0 214812786 378479740#1 -700440136 -56163443#3 -150041594#1 -1290085526#1 -700440129 -700440128 -700440130#1 -700440130#0 -150041565"/>
    </vehicle>
    <vehicle id="truck79" type="truck_truck" depart="2921.32" departLane="best">
        <route edges="149518769#1 38115188 150041593 196656222#0 196656222#1 196656222#2 700440130#0 700440130#1 700440128 700440129 1290085526#0 150041594#0 56163443#1 700440137 700440134 715913363#2 1290085525#0 1290085525#1 700440148 378479743#0 378479743#1 378479743#2 378479743#3 378479743#4 378479743#5 378479743#6 -1265069358#1 -1265069360#0"/>
    </vehicle>
    <vehicle id="truck81" type="truck_truck" depart="2995.27" departLane="best">
        <route edges="196656222#0 196656222#1 196656222#2 700440130#0 700440130#1 700440128 700440129 1290085526#0 150041594#0 56163443#1 700440137 700440134 715913363#2 1290085525#0 1290085525#1 -4144040#4 -4144040#3"/>
    </vehicle>
    <vehicle id="truck82" type="truck_truck" depart="3032.25" departLane="best">
        <route edges="700440133 378479740#1 -700440136 -56163443#3 -150041594#1 -1290085526#1 -700440129 -700440128 -700440130#1 -700440130#0 -196656222#2 -196656222#1 -196656222#0 -53207957 150041579#0 150041579#2"/>
    </vehicle>
    <vehicle id="truck83" type="truck_truck" depart="3069.23" departLane="best">
        <route edges="150041593 196656222#0 196656222#1 196656222#2 700440130#0 700440130#1 700440128 700440129 1290085526#0 150041594#0 56163443#1 700440137 700440134 715913363#2 1290085525#0 1290085525#1 -4144040#4 -4144040#3"/>
    </vehicle>
    <vehicle id="truck84" type="truck_truck" depart="3106.21" departLane="best">
        <route edges="-4295817#1 -4295817#0 700440129 1290085526#0 150041594#0 56163443#1 700440137 700440134 715913363#2 1290085525#0 1290085525#1 700440148 378479743#0 378479743#1 378479743#2 378479743#3 378479743#4 378479743#5 378479743#6 -1265069358#1 -1265069360#0"/>
    </vehicle>
    <vehicle id="truck85" type="truck_truck" depart="3143.19" departLane="best">
        <route edges="4295817#1 4295817#3 150041551#2 56163443#1 700440137 700440134 715913363#2 1290085525#0 1290085525#1 700440148 378479743#0 378479743#1 75392301#0 75392301#1 23015831"/>
    </vehicle>
    <vehicle id="truck86" type="truck_truck" depart="3180.17" departLane="best">
        <route edges="150041593 196656222#0 196656222#1 196656222#2 700440130#0 700440130#1 700440128 700440129 1290085526#0 150041594#0 56163443#1 700440137 700440134 116556686#1 -60263960 60263960 116556688"/>
    </vehicle>
    <vehicle id="truck87" type="truck_truck" depart="3217.15" departLane="best">
        <route edges="-4295817#3 -4295817#1 -4295817#0 700440129 1290085526#0 150041594#0 56163443#1 700440137 700440134 715913363#2 1290085525#0 1290085525#1 700440148 378479743#0 378479743#1 378479743#2 378479743#3 378479743#4 378479743#5 378479743#6 700236092#0 700236092#1 700236093 44973978 506013711#1 4019053#2 -150032770#6 -150032770#5"/>
    </vehicle>
    <vehicle id="truck88" type="truck_truck" depart="3254.12" departLane="best">
        <route edges="75392301#1 4195610#0 4195610#2 484022097 4144040#3 4144040#4 700440148 700440131 506015829#1 506015832 700440133 378479740#1 -700440136 -56163443#3 -150041594#1 -1290085526#1 -700440129 -700440128 -700440130#1 -700440130#0 -196656222#2 -196656222#1"/>
    </vehicle>
    <vehicle id="truck89" type="truck_truck" depart="3291.10" departLane="best" departSpeed="max">
        <route edges="150041565 700440130#0 700440130#1 700440128 700440129 1290085526#0 150041594#0 56163443#1 700440137 700440134 214812788#2 73372559 -689912267#0 -624481020#4"/>
    </vehicle>
    <vehicle id="truck91" type="truck_truck" depart="3365.06" departLane="best">
        <route edges="700440129 1290085526#0 150041594#0 56163443#1 700440137 700440134 715913363#2 1290085525#0 1290085525#1 700440148 378479743#0 378479743#1 378479743#2 378479743#3 378479743#4 378479743#5 378479743#6 700236092#0 700236092#1 700236093 44973978 506013711#1 4019053#2"/>
    </vehicle>
    <vehicle id="truck92" type="truck_truck" depart="3402.04" departLane="best">
        <route edges="150041551#1 150041551#2 56163443#1 700440137 700440134 715913363#2 1290085525#0 1290085525#1 700440148 378479743#0 378479743#1 378479743#2 378479743#3 378479743#4 378479743#5 378479743#6 700236092#0 700236092#1 700236093 44973978 506013711#1 4019053#2 -150032770#6 -150032770#5 -150032770#2 -150032770#1 -150032770#0 150032770#0 150032770#1 150032770#2 150032770#5 150032770#6 103958941#0 103958941#2"/>
    </vehicle>
    <vehicle id="truck93" type="truck_truck" depart="3439.02" departLane="best">
        <route edges="150041593 196656222#0 196656222#1 196656222#2 700440130#0 700440130#1 700440128 700440129 1290085526#0 150041594#0 56163443#1 700440137 700440134 715913363#2 1290085525#0 1290085525#1 700440148 378479743#0"/>
    </vehicle>
    <vehicle id="truck95" type="truck_truck" depart="3512.98" departLane="best">
        <route edges="38115188 150041593 196656222#0 196656222#1 196656222#2 700440130#0 700440130#1 700440128 700440129 1290085526#0 150041594#0 56163443#1 700440137 700440134 214812788#2 73372559 -689912267#0 -624481020#4 -624481020#3 -624481020#1 -624481020#0"/>
    </vehicle>
    <vehicle id="truck97" type="truck_truck" depart="3586.93" departLane="best">
        <route edges="24509268 700440138 700440139 -378479743#6 -378479743#5 -378479743#4 -378479743#3 -378479743#2 -378479743#1 -378479743#0 700440131 506015829#1 506015832 700440133 378479740#1 -700440136 -56163443#3 -150041594#1 -1290085526#1 -700440129 4295817#0 -23508224 -715835444#5"/>
    </vehicle>
</routes>
