<?xml version="1.0" encoding="UTF-8"?>

<!-- generated on 2024-10-09 11:27:53.794049 by randomTrips.py UNKNOWN
<configuration>
    <net-file value="osm.net.xml.gz"/>
    <output-trip-file value="osm.passenger.trips.xml"/>
    <route-file value="osm.passenger.rou.xml"/>
    <prefix value="veh"/>
    <trip-attributes value="departLane=&quot;best&quot;"/>
    <fringe-start-attributes value="departSpeed=&quot;max&quot;"/>
    <vehicle-class value="passenger"/>
    <lanes value="True"/>
    <fringe-factor value="5"/>
    <allow-fringe.min-length value="1000.0"/>
    <via-edge-types value="highway.motorway,highway.motorway_link,highway.trunk_link,highway.primary_link,highway.secondary_link,highway.tertiary_link"/>
    <min-distance value="300.0"/>
    <min-distance.fringe value="10.0"/>
    <remove-loops value="True"/>
    <validate value="True"/>
    <insertion-density value="12.0"/>
</configuration>
-->

<!-- generated on 2024-10-09 11:27:53 by Eclipse SUMO duarouter Version 1.20.0
<configuration xmlns:xsi="http://www.w3.org/2001/XMLSchema-instance" xsi:noNamespaceSchemaLocation="http://sumo.dlr.de/xsd/duarouterConfiguration.xsd">

    <input>
        <net-file value="osm.net.xml.gz"/>
        <route-files value="osm.passenger.trips.xml"/>
    </input>

    <output>
        <output-file value="osm.passenger.rou.xml"/>
        <alternatives-output value="NUL"/>
    </output>

    <processing>
        <remove-loops value="true"/>
    </processing>

    <time>
        <begin value="0.0"/>
        <end value="3600.0"/>
    </time>

    <report>
        <no-warnings value="true"/>
        <ignore-errors value="true"/>
        <no-step-log value="true"/>
    </report>

</configuration>
-->

<routes xmlns:xsi="http://www.w3.org/2001/XMLSchema-instance" xsi:noNamespaceSchemaLocation="http://sumo.dlr.de/xsd/routes_file.xsd">
    <vType id="veh_passenger" vClass="passenger"/>
    <vehicle id="veh0" type="veh_passenger" depart="0.00" departLane="best" departSpeed="max">
        <route edges="150041565 700440130#0 700440130#1 700440128 700440129 1290085526#0 150041594#0 56163443#1 700440137 700440134 715913363#2 1290085525#0 1290085525#1 700440148 378479743#0 378479743#1 378479743#2 378479743#3 378479743#4 378479743#5 378479743#6 700236092#0 700236092#1 700236093 44973978 506013711#1 4019053#2 -150032770#6 -150032770#5 -150032770#2 -150032770#1"/>
    </vehicle>
    <vehicle id="veh1" type="veh_passenger" depart="24.65" departLane="best">
        <route edges="624481020#4 689912267#0 214812786 378479740#1 -700440136 -56163443#3 -150041594#1"/>
    </vehicle>
    <vehicle id="veh3" type="veh_passenger" depart="73.96" departLane="best">
        <route edges="624481020#4 689912267#0 214812786 378479740#1 -700440136 -56163443#3 -150041551#3 -150041551#1 -150041551#0 715835444#4 715835444#5 23508224"/>
    </vehicle>
    <vehicle id="veh4" type="veh_passenger" depart="98.61" departLane="best" departSpeed="max">
        <route edges="51873805 60263960 116556688 43135644#0 715913363#2 1290085525#0 1290085525#1 700440148 378479743#0 378479743#1 378479743#2 378479743#3 378479743#4 378479743#5 378479743#6 -1265069358#1 -1265069360#0"/>
    </vehicle>
    <vehicle id="veh6" type="veh_passenger" depart="147.91" departLane="best">
        <route edges="-70205228#1 -70205228#0 -23508141#1 715835444#2 715835444#3 150041551#0 150041551#1 150041551#2 -150041594#1 -1290085526#1 -700440129"/>
    </vehicle>
    <vehicle id="veh7" type="veh_passenger" depart="172.57" departLane="best" departSpeed="max">
        <route edges="624481020#0 624481020#1 624481020#2 624481020#4 689912267#0 214812786 715913363#2 1290085525#0 1290085525#1 700440148 378479743#0 378479743#1 378479743#2 378479743#3 378479743#4 378479743#5 378479743#6 700236092#0 700236092#1 700236093 44973978 506013711#1 35574708#1"/>
    </vehicle>
    <vehicle id="veh8" type="veh_passenger" depart="197.22" departLane="best">
        <route edges="-378479743#0 700440131 506015829#1 506015832 700440133 378479740#1 -700440136 -56163443#3 -150041551#3 -150041551#1 -150041551#0 715835444#4"/>
    </vehicle>
    <vehicle id="veh9" type="veh_passenger" depart="221.87" departLane="best">
        <route edges="624481020#4 689912267#0 214812786 116556686#1 -60263960 715835444#1 -23508141#0 23508142#0 23508142#1"/>
    </vehicle>
    <vehicle id="veh10" type="veh_passenger" depart="246.52" departLane="best">
        <route edges="43135644#0 715913363#2 1290085525#0 1290085525#1 700440148 378479743#0 378479743#1 378479743#2 378479743#3 378479743#4 378479743#5 378479743#6 700236092#0 700236092#1 700236093 44973978 506013711#1 4019053#2 -150032770#6"/>
    </vehicle>
    <vehicle id="veh11" type="veh_passenger" depart="271.18" departLane="best">
        <route edges="700440128 700440129 1290085526#0 150041594#0 56163443#1 700440137 700440134 214812788#2 73372559 -689912267#0 -624481020#4 -624481020#3 -624481020#1 -624481020#0"/>
    </vehicle>
    <vehicle id="veh12" type="veh_passenger" depart="295.83" departLane="best">
        <route edges="-378479743#1 -378479743#0 700440131 506015829#1 506015832 700440133 378479740#1 -700440136 -56163443#3"/>
    </vehicle>
    <vehicle id="veh14" type="veh_passenger" depart="345.13" departLane="best" departSpeed="max">
        <route edges="4144040#0 4144040#1 4144040#2 4144040#3 4144040#4 700440148 378479743#0 378479743#1 378479743#2 378479743#3 378479743#4 378479743#5 378479743#6 700236092#0 700236092#1 700236093 44973978 506013711#1 35574708#1"/>
    </vehicle>
    <vehicle id="veh15" type="veh_passenger" depart="369.79" departLane="best">
        <route edges="-4144040#3 -4144040#2 -4144040#1 4195580#0 4195580#1 4195580#2 715835444#1 715835444#2 715835444#3"/>
    </vehicle>
    <vehicle id="veh16" type="veh_passenger" depart="394.44" departLane="best">
        <route edges="-378479743#2 -378479743#1 -378479743#0 700440131 506015829#1 506015832 700440133 378479740#1 -700440136 -56163443#3 -150041594#1 -1290085526#1 -700440129 -700440128 -700440130#1 -700440130#0 -196656222#2 -196656222#1 -196656222#0 -53207957 150041579#0"/>
    </vehicle>
    <vehicle id="veh17" type="veh_passenger" depart="419.09" departLane="best">
        <route edges="700440128 700440129 1290085526#0 150041594#0 56163443#1 700440137 700440134 715913363#2 1290085525#0 1290085525#1 700440148 378479743#0 378479743#1 378479743#2 378479743#3 378479743#4 378479743#5 378479743#6 700236092#0 700236092#1 700236093 44973978 506013711#1 4019053#2 -150032770#6 -150032770#5 -150032770#2"/>
    </vehicle>
    <vehicle id="veh18" type="veh_passenger" depart="443.74" departLane="best">
        <route edges="4144040#1 4144040#2 4144040#3 4144040#4 700440148 378479743#0 378479743#1 378479743#2 378479743#3 378479743#4 378479743#5 378479743#6 700236092#0 700236092#1 700236093 44973978 506013711#1 4019053#2 -150032770#6 -150032770#5 -150032770#2 -150032770#1 -150032770#0 150032770#0 150032770#1 150032770#2 150032770#5 150032770#6 103958941#0"/>
    </vehicle>
    <vehicle id="veh19" type="veh_passenger" depart="468.40" departLane="best">
        <route edges="700440133 715913363#2 1290085525#0 1290085525#1 700440148 378479743#0 378479743#1 378479743#2 378479743#3 378479743#4 378479743#5 378479743#6 700236092#0 700236092#1 700236093 44973978 506013711#1 4019053#2 -150032770#6 -150032770#5 -150032770#2"/>
    </vehicle>
    <vehicle id="veh20" type="veh_passenger" depart="493.05" departLane="best">
        <route edges="-378479743#3 -378479743#2 -378479743#1 -378479743#0 700440131 506015829#1 506015832 700440133 116556686#1 -60263960 -51873805"/>
    </vehicle>
    <vehicle id="veh21" type="veh_passenger" depart="517.70" departLane="best">
        <route edges="-378479743#5 -378479743#4 -378479743#3 -378479743#2 -378479743#1 -378479743#0 700440131 506015829#1 506015832 700440133 378479740#1 -700440136 -56163443#3 -150041594#1 -1290085526#1 -700440129 -700440128 -700440130#1 -700440130#0"/>
    </vehicle>
    <vehicle id="veh22" type="veh_passenger" depart="542.35" departLane="best">
        <route edges="150041551#1 150041551#2 56163443#1 700440137 700440134 715913363#2 1290085525#0 1290085525#1 -4144040#4"/>
    </vehicle>
    <vehicle id="veh23" type="veh_passenger" depart="567.01" departLane="best">
        <route edges="-23508224 -715835444#5 -715835444#4 150041551#0 150041551#1 150041551#2 56163443#1 700440137 700440134 715913363#2 1290085525#0 1290085525#1 700440148 378479743#0 378479743#1 378479743#2 378479743#3 378479743#4 378479743#5 378479743#6 700236092#0 700236092#1 700236093 44973978 506013711#1 4019053#2 -150032770#6"/>
    </vehicle>
    <vehicle id="veh24" type="veh_passenger" depart="591.66" departLane="best">
        <route edges="196656222#0 196656222#1 196656222#2 700440130#0 700440130#1 700440128 700440129 1290085526#0 150041594#0 -150041551#3 -150041551#1 -150041551#0 -715835444#3"/>
    </vehicle>
    <vehicle id="veh25" type="veh_passenger" depart="616.31" departLane="best">
        <route edges="715835444#3 150041551#0 150041551#1 150041551#2 56163443#1 700440137 700440134 214812788#2 73372559 -689912267#0"/>
    </vehicle>
    <vehicle id="veh26" type="veh_passenger" depart="640.96" departLane="best">
        <route edges="-70205228#1 -70205228#0 -23508141#1 -715835444#1 60263960 116556688 43135644#0 715913363#2 1290085525#0 1290085525#1 700440148 378479743#0 378479743#1 378479743#2 378479743#3"/>
    </vehicle>
    <vehicle id="veh27" type="veh_passenger" depart="665.62" departLane="best">
        <route edges="150041594#0 56163443#1 700440137 700440134 116556686#1 -60263960 715835444#1 23508141#1 70205228#0 70205228#1"/>
    </vehicle>
    <vehicle id="veh29" type="veh_passenger" depart="714.92" departLane="best">
        <route edges="23508141#0 -715835444#1 60263960 116556688 43135644#0 715913363#2 1290085525#0 1290085525#1 700440148 378479743#0 378479743#1 378479743#2 378479743#3 378479743#4 378479743#5 378479743#6"/>
    </vehicle>
    <vehicle id="veh30" type="veh_passenger" depart="739.57" departLane="best" departSpeed="max">
        <route edges="492925920#0 492925920#1 395456768 395456769#0 395456769#1 24509268 700440138 700440139 -378479743#6 -378479743#5 -378479743#4 -378479743#3 -378479743#2 -378479743#1 -378479743#0 700440131 506015829#1 506015832 700440133 214812788#2"/>
    </vehicle>
    <vehicle id="veh32" type="veh_passenger" depart="788.88" departLane="best">
        <route edges="1265069358#1 -378479743#6 -378479743#5 -378479743#4 -378479743#3 -378479743#2 -378479743#1 -378479743#0 700440131 506015829#1 506015832 700440133 378479740#1 -700440136 -56163443#3 -150041594#1 -1290085526#1 -700440129 -700440128"/>
    </vehicle>
    <vehicle id="veh34" type="veh_passenger" depart="838.18" departLane="best">
        <route edges="116556686#1 -60263960 715835444#1 715835444#2 715835444#3 150041551#0 150041551#1"/>
    </vehicle>
    <vehicle id="veh35" type="veh_passenger" depart="862.84" departLane="best">
        <route edges="-23015831 4195610#0 4195610#2 484022097 4144040#3 4144040#4 700440148 700440131 506015829#1 506015832 700440133 378479740#1 -700440136 -56163443#3 -150041551#3 -4295817#3 -4295817#1"/>
    </vehicle>
    <vehicle id="veh36" type="veh_passenger" depart="887.49" departLane="best">
        <route edges="196656222#2 700440130#0 700440130#1 700440128 700440129 1290085526#0 150041594#0 56163443#1 700440137 700440134 715913363#2 1290085525#0 1290085525#1 700440148 378479743#0 378479743#1 378479743#2 378479743#3 -23248109#1 -23248109#0"/>
    </vehicle>
    <vehicle id="veh37" type="veh_passenger" depart="912.14" departLane="best">
        <route edges="-70205228#0 -23508141#1 -715835444#1 60263960 116556688 43135644#0 715913363#2 1290085525#0 1290085525#1 700440148 378479743#0 378479743#1 378479743#2 378479743#3 378479743#4 378479743#5 378479743#6 700236092#0 700236092#1"/>
    </vehicle>
    <vehicle id="veh38" type="veh_passenger" depart="936.79" departLane="best" departSpeed="max">
        <route edges="150041565 700440130#0 700440130#1 700440128 700440129 1290085526#0 150041594#0 56163443#1 700440137 700440134 715913363#2 1290085525#0 1290085525#1 -4144040#4 -4144040#3"/>
    </vehicle>
    <vehicle id="veh39" type="veh_passenger" depart="961.45" departLane="best" departSpeed="max">
        <route edges="1265069359 1265069358#1 -378479743#6 -378479743#5 -378479743#4 -378479743#3 -378479743#2 -378479743#1 -378479743#0 700440131 506015829#1 506015832 700440133 378479740#1 -700440136 -56163443#3 -150041551#3 -150041551#1 -150041551#0 715835444#4 715835444#5 23508224"/>
    </vehicle>
    <vehicle id="veh40" type="veh_passenger" depart="986.10" departLane="best">
        <route edges="700440128 700440129 1290085526#0 150041594#0 56163443#1 700440137 700440134 116556686#1 -60263960 -4195580#2 -4195580#1 -4195580#0"/>
    </vehicle>
    <vehicle id="veh41" type="veh_passenger" depart="1010.75" departLane="best">
        <route edges="700440128 700440129 1290085526#0 150041594#0 56163443#1 700440137 700440134 715913363#2 1290085525#0 1290085525#1 700440148"/>
    </vehicle>
    <vehicle id="veh42" type="veh_passenger" depart="1035.40" departLane="best">
        <route edges="624481020#2 624481020#4 689912267#0 214812786 378479740#1 -700440136 -56163443#3 -150041594#1 -1290085526#1 -700440129 -700440128 -700440130#1 -700440130#0 -150041565"/>
    </vehicle>
    <vehicle id="veh43" type="veh_passenger" depart="1060.06" departLane="best">
        <route edges="700440129 1290085526#0 150041594#0 56163443#1 700440137 700440134 715913363#2 1290085525#0 1290085525#1 700440148 378479743#0 378479743#1 378479743#2 378479743#3 378479743#4 378479743#5 378479743#6"/>
    </vehicle>
    <vehicle id="veh44" type="veh_passenger" depart="1084.71" departLane="best">
        <route edges="700440138 700440139 -378479743#6 -378479743#5 -378479743#4 -378479743#3 -378479743#2 -378479743#1 -378479743#0 700440131 506015829#1 506015832 700440133 116556686#1 -60263960 715835444#1 -23508141#0 23508142#0 23508142#1"/>
    </vehicle>
    <vehicle id="veh45" type="veh_passenger" depart="1109.36" departLane="best">
        <route edges="196656222#2 700440130#0 700440130#1 700440128 700440129 1290085526#0 150041594#0 56163443#1 700440137 700440134 715913363#2 1290085525#0 1290085525#1 700440148 378479743#0 378479743#1 378479743#2 378479743#3 378479743#4 378479743#5 378479743#6 700236092#0 700236092#1 700236093 44973978"/>
    </vehicle>
    <vehicle id="veh46" type="veh_passenger" depart="1134.01" departLane="best" departSpeed="max">
        <route edges="150041565 700440130#0 700440130#1 700440128 700440129 1290085526#0 150041594#0 56163443#1 700440137 700440134 715913363#2 1290085525#0 1290085525#1 700440148 378479743#0 378479743#1 378479743#2 378479743#3 378479743#4 378479743#5 378479743#6 700236092#0 700236092#1 700236093 44973978 506013711#1 4019053#2 -150032770#6 -150032770#5"/>
    </vehicle>
    <vehicle id="veh47" type="veh_passenger" depart="1158.67" departLane="best">
        <route edges="484022097 4144040#3 4144040#4 700440148 378479743#0 378479743#1 378479743#2 378479743#3 378479743#4 378479743#5 378479743#6"/>
    </vehicle>
    <vehicle id="veh48" type="veh_passenger" depart="1183.32" departLane="best">
        <route edges="-4295817#3 -4295817#1 -4295817#0 700440129 1290085526#0 150041594#0 56163443#1 700440137 700440134 715913363#2 1290085525#0 1290085525#1 700440148 378479743#0 378479743#1 378479743#2 378479743#3 378479743#4 378479743#5 378479743#6 700236092#0 700236092#1 700236093 44973978 506013711#1 4019053#2 -150032770#6 -150032770#5 -150032770#2 -150032770#1 -150032770#0"/>
    </vehicle>
    <vehicle id="veh49" type="veh_passenger" depart="1207.97" departLane="best">
        <route edges="700440130#1 700440128 700440129 1290085526#0 150041594#0 56163443#1 700440137"/>
    </vehicle>
    <vehicle id="veh50" type="veh_passenger" depart="1232.62" departLane="best">
        <route edges="150041580 149518769#1 38115188 150041593 196656222#0 196656222#1 196656222#2 700440130#0 700440130#1 700440128 700440129 1290085526#0 150041594#0 56163443#1 700440137 700440134 214812788#2 73372559 -689912267#0"/>
    </vehicle>
    <vehicle id="veh53" type="veh_passenger" depart="1306.58" departLane="best">
        <route edges="-70205228#0 -23508141#1 -715835444#1 60263960 116556688 43135644#0 715913363#2 1290085525#0 1290085525#1 700440148 378479743#0 378479743#1 378479743#2 378479743#3 378479743#4 378479743#5 378479743#6 700236092#0 700236092#1 700236093 44973978"/>
    </vehicle>
    <vehicle id="veh54" type="veh_passenger" depart="1331.23" departLane="best">
        <route edges="-182982119#1 56163443#1 700440137 700440134 715913363#2 1290085525#0 1290085525#1 700440148 378479743#0 378479743#1 378479743#2 378479743#3 378479743#4 378479743#5 378479743#6 -1265069358#1"/>
    </vehicle>
    <vehicle id="veh55" type="veh_passenger" depart="1355.89" departLane="best">
        <route edges="-70205228#1 -70205228#0 -23508141#1 -715835444#1 60263960 116556688 43135644#0 715913363#2 1290085525#0 1290085525#1 700440148 378479743#0 378479743#1 75392301#0 75392301#1"/>
    </vehicle>
    <vehicle id="veh56" type="veh_passenger" depart="1380.54" departLane="best">
        <route edges="700440129 1290085526#0 150041594#0 56163443#1 700440137 700440134 715913363#2 1290085525#0 1290085525#1 700440148 378479743#0"/>
    </vehicle>
    <vehicle id="veh58" type="veh_passenger" depart="1429.84" departLane="best" departSpeed="max">
        <route edges="150041565 700440130#0 700440130#1 700440128 700440129 1290085526#0 150041594#0 56163443#1 700440137 700440134 116556686#1 -60263960 715835444#1 -23508141#0 23508142#0 23508142#1"/>
    </vehicle>
    <vehicle id="veh59" type="veh_passenger" depart="1454.50" departLane="best">
        <route edges="700440129 1290085526#0 150041594#0 56163443#1 700440137 700440134 715913363#2 1290085525#0 1290085525#1 700440148 378479743#0 378479743#1 378479743#2 378479743#3 378479743#4 378479743#5 378479743#6 700236092#0 700236092#1 700236093 44973978 506013711#1 4019053#2 -150032770#6 -150032770#5 -150032770#2 -150032770#1 -150032770#0 150032770#0 150032770#1 150032770#2 150032770#5 150032770#6 103958941#0"/>
    </vehicle>
    <vehicle id="veh61" type="veh_passenger" depart="1503.80" departLane="best">
        <route edges="395456769#0 395456769#1 24509268 700440138 700440139 -378479743#6 -378479743#5 -378479743#4 -378479743#3 -378479743#2 -378479743#1 -378479743#0 700440131 506015829#1 506015832 700440133 214812788#2 73372559"/>
    </vehicle>
    <vehicle id="veh62" type="veh_passenger" depart="1528.45" departLane="best">
        <route edges="4144040#1 4144040#2 4144040#3 4144040#4 700440148 378479743#0 378479743#1 378479743#2 378479743#3 378479743#4 378479743#5 378479743#6 -1265069358#1 -1265069360#0"/>
    </vehicle>
    <vehicle id="veh63" type="veh_passenger" depart="1553.11" departLane="best" departSpeed="max">
        <route edges="51873805 60263960 116556688 43135644#0 214812788#2 73372559 -689912267#0 -624481020#4 -624481020#3 -624481020#1 -624481020#0"/>
    </vehicle>
    <vehicle id="veh65" type="veh_passenger" depart="1602.41" departLane="best">
        <route edges="-378479743#5 -378479743#4 -378479743#3 -378479743#2 -378479743#1 -378479743#0 700440131 506015829#1 506015832 700440133 378479740#1 -700440136 -56163443#3 -150041594#1 -1290085526#1 -700440129 4295817#0 -23508224"/>
    </vehicle>
    <vehicle id="veh67" type="veh_passenger" depart="1651.71" departLane="best">
        <route edges="-715835444#1 60263960 116556688 43135644#0 715913363#2 1290085525#0 1290085525#1 700440148 378479743#0 378479743#1 378479743#2 378479743#3 378479743#4 378479743#5 378479743#6 700236092#0 700236092#1 700236093 44973978 506013711#1 35574708#1"/>
    </vehicle>
    <vehicle id="veh69" type="veh_passenger" depart="1701.02" departLane="best" departSpeed="max">
        <route edges="624481020#0 624481020#1 624481020#2 624481020#4 689912267#0 214812786 378479740#1 -700440136 -56163443#3 -150041594#1 -1290085526#1 -700440129 -700440128 -700440130#1 -700440130#0 -196656222#2"/>
    </vehicle>
    <vehicle id="veh70" type="veh_passenger" depart="1725.67" departLane="best">
        <route edges="1290085526#0 150041594#0 56163443#1 700440137 700440134 116556686#1"/>
    </vehicle>
    <vehicle id="veh71" type="veh_passenger" depart="1750.32" departLane="best" departSpeed="max">
        <route edges="150041565 700440130#0 700440130#1 700440128 700440129 1290085526#0 150041594#0 56163443#1 700440137 700440134 715913363#2 1290085525#0 1290085525#1 700440148 378479743#0 378479743#1 378479743#2 378479743#3 378479743#4 378479743#5 378479743#6 -1265069358#1 -1265069360#0"/>
    </vehicle>
    <vehicle id="veh72" type="veh_passenger" depart="1774.98" departLane="best">
        <route edges="700440130#0 700440130#1 700440128 700440129 1290085526#0 150041594#0 56163443#1 700440137 700440134 715913363#2 1290085525#0 1290085525#1 700440148 378479743#0 378479743#1 75392301#0 75392301#1 23015831"/>
    </vehicle>
    <vehicle id="veh73" type="veh_passenger" depart="1799.63" departLane="best" departSpeed="max">
        <route edges="624481020#0 624481020#1 624481020#2 624481020#4 689912267#0 214812786 116556686#1 -60263960 715835444#1 -23508141#0 23508142#0 23508142#1"/>
    </vehicle>
    <vehicle id="veh74" type="veh_passenger" depart="1824.28" departLane="best">
        <route edges="43135644#0 378479740#1 -700440136 -56163443#3 -150041594#1 -1290085526#1 -700440129 -700440128 -700440130#1 -700440130#0"/>
    </vehicle>
    <vehicle id="veh75" type="veh_passenger" depart="1848.93" departLane="best">
        <route edges="700440129 1290085526#0 150041594#0 56163443#1 700440137 700440134 715913363#2 1290085525#0 1290085525#1 -4144040#4 -4144040#3 -4144040#2"/>
    </vehicle>
    <vehicle id="veh76" type="veh_passenger" depart="1873.59" departLane="best">
        <route edges="700440130#1 700440128 700440129 1290085526#0 150041594#0 56163443#1 700440137 700440134 715913363#2 1290085525#0 1290085525#1 700440148 378479743#0 378479743#1 378479743#2 378479743#3 -23248109#1"/>
    </vehicle>
    <vehicle id="veh77" type="veh_passenger" depart="1898.24" departLane="best" departSpeed="max">
        <route edges="150041565 700440130#0 700440130#1 700440128 700440129 1290085526#0 150041594#0 56163443#1 700440137 700440134 715913363#2 1290085525#0 1290085525#1 700440148 378479743#0"/>
    </vehicle>
    <vehicle id="veh79" type="veh_passenger" depart="1947.54" departLane="best">
        <route edges="689912267#0 214812786 378479740#1 -700440136 -56163443#3 -150041551#3 -150041551#1 -150041551#0 715835444#4 715835444#5"/>
    </vehicle>
    <vehicle id="veh80" type="veh_passenger" depart="1972.20" departLane="best" departSpeed="max">
        <route edges="51873805 60263960 116556688 43135644#0 715913363#2 1290085525#0 1290085525#1 700440148 378479743#0 378479743#1 378479743#2 378479743#3 378479743#4 378479743#5 378479743#6 700236092#0 700236092#1 700236093"/>
    </vehicle>
    <vehicle id="veh82" type="veh_passenger" depart="2021.50" departLane="best" departSpeed="max">
        <route edges="51873805 60263960 116556688 43135644#0 715913363#2 1290085525#0 1290085525#1 700440148 378479743#0 378479743#1 378479743#2 378479743#3 378479743#4 378479743#5 378479743#6 700236092#0"/>
    </vehicle>
    <vehicle id="veh84" type="veh_passenger" depart="2070.81" departLane="best">
        <route edges="196656222#0 196656222#1 196656222#2 700440130#0 700440130#1 700440128 700440129 1290085526#0 150041594#0 56163443#1 700440137 700440134 214812788#2 73372559 -689912267#0 -624481020#4 -624481020#3 -624481020#1 -624481020#0"/>
    </vehicle>
    <vehicle id="veh86" type="veh_passenger" depart="2120.11" departLane="best" departSpeed="max">
        <route edges="1185215707 53207959#0 53207959#1 53207959#3 150041593 196656222#0 196656222#1 196656222#2 700440130#0 700440130#1 700440128 700440129 1290085526#0 150041594#0 56163443#1 700440137 700440134 715913363#2 1290085525#0 1290085525#1 700440148 378479743#0 378479743#1 378479743#2 378479743#3 378479743#4 378479743#5 378479743#6 700236092#0"/>
    </vehicle>
    <vehicle id="veh87" type="veh_passenger" depart="2144.76" departLane="best" departSpeed="max">
        <route edges="4144040#0 4144040#1 4144040#2 4144040#3 4144040#4 700440148 378479743#0 378479743#1 378479743#2 378479743#3 378479743#4 378479743#5 378479743#6 700236092#0 700236092#1 700236093 44973978 506013711#1 4019053#2 -150032770#6 -150032770#5 -150032770#2 -150032770#1 -150032770#0 150032770#0 150032770#1 150032770#2 150032770#5 150032770#6 103958941#0"/>
    </vehicle>
    <vehicle id="veh88" type="veh_passenger" depart="2169.42" departLane="best">
        <route edges="700440139 -378479743#6 -378479743#5 -378479743#4 -378479743#3 -378479743#2 -378479743#1 -378479743#0 700440131 506015829#1 506015832 700440133 378479740#1 -700440136 -56163443#3 -150041594#1 -1290085526#1 -700440129 4295817#0 -23508224"/>
    </vehicle>
    <vehicle id="veh89" type="veh_passenger" depart="2194.07" departLane="best">
        <route edges="715835444#3 150041551#0 150041551#1 150041551#2 56163443#1 700440137 700440134 715913363#2 1290085525#0 1290085525#1 700440148 378479743#0 378479743#1 378479743#2 378479743#3 378479743#4 378479743#5 378479743#6"/>
    </vehicle>
    <vehicle id="veh90" type="veh_passenger" depart="2218.72" departLane="best">
        <route edges="395456768 395456769#0 395456769#1 24509268 700440138 700440139 -378479743#6 -378479743#5 -378479743#4 -378479743#3 -378479743#2 -378479743#1 -378479743#0 700440131 506015829#1 506015832 700440133 378479740#1 -700440136 -56163443#3 182982119#0"/>
    </vehicle>
    <vehicle id="veh93" type="veh_passenger" depart="2292.68" departLane="best">
        <route edges="1265069358#1 -378479743#6 -378479743#5 -378479743#4 -378479743#3 -378479743#2 -378479743#1 -378479743#0 700440131 506015829#1 506015832 700440133 378479740#1 -700440136"/>
    </vehicle>
    <vehicle id="veh95" type="veh_passenger" depart="2341.98" departLane="best">
        <route edges="4144040#3 4144040#4 700440148 700440131 506015829#1 506015832 700440133 378479740#1 -700440136 -56163443#3 -150041594#1 -1290085526#1 -700440129 -700440128"/>
    </vehicle>
    <vehicle id="veh97" type="veh_passenger" depart="2391.29" departLane="best">
        <route edges="150041551#2 56163443#1 700440137 700440134 214812788#2 73372559 -689912267#0 -624481020#4 -624481020#3 -624481020#1 -624481020#0"/>
    </vehicle>
    <vehicle id="veh98" type="veh_passenger" depart="2415.94" departLane="best">
        <route edges="700440130#0 700440130#1 700440128 700440129 1290085526#0 150041594#0 56163443#1 700440137 700440134 715913363#2 1290085525#0 1290085525#1 700440148 378479743#0"/>
    </vehicle>
    <vehicle id="veh99" type="veh_passenger" depart="2440.59" departLane="best" departSpeed="max">
        <route edges="150041565 700440130#0 700440130#1 700440128 700440129 1290085526#0 150041594#0 56163443#1 700440137 700440134 116556686#1 -60263960 715835444#1 -23508141#0 23508142#0 23508142#1"/>
    </vehicle>
    <vehicle id="veh100" type="veh_passenger" depart="2465.25" departLane="best">
        <route edges="4144040#1 4144040#2 4144040#3 4144040#4 700440148 378479743#0 378479743#1 378479743#2 378479743#3 378479743#4 378479743#5 378479743#6 700236092#0 700236092#1 700236093 44973978 506013711#1 4019053#2 -150032770#6 -150032770#5"/>
    </vehicle>
    <vehicle id="veh101" type="veh_passenger" depart="2489.90" departLane="best">
        <route edges="150041580 149518769#1 38115188 150041593 196656222#0 196656222#1 196656222#2 700440130#0 700440130#1 700440128 700440129 1290085526#0 150041594#0 56163443#1 700440137 700440134 715913363#2 1290085525#0 1290085525#1 -4144040#4 -4144040#3"/>
    </vehicle>
    <vehicle id="veh102" type="veh_passenger" depart="2514.55" departLane="best">
        <route edges="-23508141#1 715835444#2 715835444#3 150041551#0 150041551#1 150041551#2 -150041594#1 -1290085526#1 -700440129 -700440128 -700440130#1 -700440130#0 -196656222#2 -196656222#1 -196656222#0"/>
    </vehicle>
    <vehicle id="veh103" type="veh_passenger" depart="2539.20" departLane="best" departSpeed="max">
        <route edges="4144040#0 4195580#0 4195580#1 4195580#2 60263960 116556688 43135644#0 378479740#1 -700440136 -56163443#3 -150041594#1 -1290085526#1 -700440129"/>
    </vehicle>
    <vehicle id="veh104" type="veh_passenger" depart="2563.86" departLane="best">
        <route edges="53207959#0 53207959#1 53207959#3 150041593 196656222#0 196656222#1 196656222#2 700440130#0 700440130#1 700440128 700440129 1290085526#0 150041594#0 56163443#1 700440137 700440134 715913363#2 1290085525#0 1290085525#1 700440148 378479743#0 378479743#1 75392301#0 75392301#1 4195610#0 4195610#2"/>
    </vehicle>
    <vehicle id="veh105" type="veh_passenger" depart="2588.51" departLane="best">
        <route edges="150041593 196656222#0 196656222#1 196656222#2 700440130#0 700440130#1 700440128 700440129 1290085526#0 150041594#0 56163443#1 700440137 700440134 715913363#2 1290085525#0 1290085525#1 700440148 378479743#0 378479743#1 378479743#2 378479743#3 378479743#4 378479743#5 378479743#6 700236092#0 700236092#1 700236093 44973978 506013711#1 4019053#2 -150032770#6 -150032770#5 -150032770#2 -150032770#1"/>
    </vehicle>
    <vehicle id="veh106" type="veh_passenger" depart="2613.16" departLane="best">
        <route edges="700440130#0 700440130#1 700440128 700440129 1290085526#0 150041594#0 56163443#1 700440137 700440134 715913363#2 1290085525#0 1290085525#1 700440148 378479743#0 378479743#1 378479743#2 378479743#3 378479743#4 378479743#5 378479743#6 700236092#0 700236092#1 700236093 44973978 506013711#1 4019053#2 -150032770#6"/>
    </vehicle>
    <vehicle id="veh107" type="veh_passenger" depart="2637.81" departLane="best" departSpeed="max">