<?xml version="1.0" encoding="UTF-8"?>

<!-- generated on 2024-10-08 17:29:57.297599 by osmWebWizard.py UNKNOWN
<configuration>
    <net-file value="/opt/homebrew/Cellar/sumo/1.20.0/share/sumo/tools/2024-10-08-17-29-51/osm.net.xml.gz"/>
    <ptlines-file value="/opt/homebrew/Cellar/sumo/1.20.0/share/sumo/tools/2024-10-08-17-29-51/osm_ptlines.xml"/>
    <ptstops-file value="/opt/homebrew/Cellar/sumo/1.20.0/share/sumo/tools/2024-10-08-17-29-51/osm_stops.add.xml"/>
    <output-file value="/opt/homebrew/Cellar/sumo/1.20.0/share/sumo/tools/2024-10-08-17-29-51/osm_pt.rou.xml"/>
    <stopinfos-file value="/opt/homebrew/Cellar/sumo/1.20.0/share/sumo/tools/2024-10-08-17-29-51/stopinfos.xml"/>
    <routes-file value="/opt/homebrew/Cellar/sumo/1.20.0/share/sumo/tools/2024-10-08-17-29-51/vehroutes.xml"/>
    <trips-file value="/opt/homebrew/Cellar/sumo/1.20.0/share/sumo/tools/2024-10-08-17-29-51/trips.trips.xml"/>
    <min-stops value="0"/>
    <extend-to-fringe value="True"/>
    <random-begin value="True"/>
    <seed value="42"/>
    <ignore-errors value="True"/>
    <vtype-prefix value="pt_"/>
    <verbose value="True"/>
</configuration>
-->

<routes xmlns:xsi="http://www.w3.org/2001/XMLSchema-instance" xsi:noNamespaceSchemaLocation="http://sumo.dlr.de/xsd/routes_file.xsd">
    <vType id="pt_bus" vClass="bus"/>
    <vType id="pt_tram" vClass="tram"/>
    <vType id="pt_train" vClass="rail"/>
    <vType id="pt_subway" vClass="subway"/>
    <vType id="pt_light_rail" vClass="rail_urban"/>
    <vType id="pt_monorail" vClass="rail_urban"/>
    <vType id="pt_trolleybus" vClass="bus"/>
    <vType id="pt_minibus" vClass="bus"/>
    <vType id="pt_share_taxi" vClass="taxi"/>
    <vType id="pt_aerialway" vClass="cable_car" length="2.5" width="2" personCapacity="4"/>
    <vType id="pt_ferry" vClass="ship"/>
    <route id="pt_bus_RH:0" edges="1185215707 53207959#0 53207959#1 53207959#3 150041593 196656222#0 196656222#1 196656222#2 700440130#0 700440130#1 700440128 700440129 1290085526#0 150041594#0 56163443#1 700440137 700440134 214846345#1 214846345#2 214846345#3 253272005 378479743#0 378479743#1 378479743#2 378479743#3 378479743#4 378479743#5 378479743#6 -1265069358#1 -1265069360#0" >
        <stop busStop="818872832" duration="20" until="130.0"/> <!-- Elisabethenstift/Woog -->
        <stop busStop="448433765" duration="20" until="206.0"/> <!-- Jugendstilbad -->
    </route>
    <route id="pt_bus_F:0" edges="51873805 60263960 116556688 43135644#0 715913363#2 1290085525#0 1290085525#1 700440148 378479743#0 378479743#1 378479743#2 378479743#3 378479743#4 378479743#5 378479743#6 -1265069358#1 -1265069360#0" >
        <stop busStop="2385375149" duration="20" until="34.0"/> <!-- Pützerstraße/Mathildenhöhe (Bushalt Richtung Süd) -->
    </route>
    <route id="pt_bus_WE1:0" edges="1265069359" >
        <stop busStop="763225186" duration="20" until="35.0"/> <!-- Schloss -->
    </route>
    <route id="pt_bus_WE2:0" edges="1265069359" >
        <stop busStop="763225186" duration="20" until="34.0"/> <!-- Schloss -->
    </route>
    <route id="pt_bus_GB:0" edges="1185215707 53207959#0 53207959#1 53207959#3 150041593 196656222#0 196656222#1 196656222#2 700440130#0 700440130#1 700440128 700440129 1290085526#0 150041594#0 56163443#1 700440137 700440134 214846345#1 214846345#2 214846345#3 253272005 378479743#0 378479743#1 378479743#2 378479743#3 378479743#4 378479743#5 378479743#6 -1265069358#1 -1265069360#0" >
        <stop busStop="818872832" duration="20" until="158.0"/> <!-- Elisabethenstift/Woog -->
        <stop busStop="448433765" duration="20" until="363.0"/> <!-- Jugendstilbad -->
    </route>
    <route id="pt_bus_672:2" edges="1265069359 1265069358#1 -378479743#6 -378479743#5 -378479743#4 -378479743#3 -378479743#2 -378479743#1 -378479743#0 -253272005 -214846345#3 -214846345#2 -214846345#1 -38115197#1 -38115197#0 -700440136 -56163443#3 -150041594#1 -1290085526#1 -700440129 -700440128 -700440130#1 -700440130#0 -196656222#2 -196656222#1 -196656222#0 -53207957 150041579#0 150041579#2" >
        <stop busStop="763225186" duration="20" until="35.0"/> <!-- Schloss -->
        <stop busStop="-243169788" duration="20" until="139.0"/> <!-- Jugendstilbad -->
        <stop busStop="-25599407" duration="20" until="271.0"/> <!-- Elisabethenstift/Woog -->
        <stop busStop="-15624443" duration="20" until="363.0"/> <!-- Ostbahnhof -->
    </route>
    <route id="pt_bus_673:0" edges="1265069359 1265069358#1 -378479743#6 -378479743#5 -378479743#4 -378479743#3 -378479743#2 -378479743#1 -378479743#0 -253272005 -214846345#3 -214846345#2 -214846345#1 -38115197#1 -38115197#0 -700440136 -56163443#3 -150041594#1 -1290085526#1 -700440129 -700440128 -700440130#1 -700440130#0 -196656222#2 -196656222#1 -196656222#0 -53207957 150041579#0 150041579#2" >
        <stop busStop="763225186" duration="20" until="33.0"/> <!-- Schloss -->
        <stop busStop="-243169788" duration="20" until="178.0"/> <!-- Jugendstilbad -->
        <stop busStop="-25599407" duration="20" until="250.0"/> <!-- Elisabethenstift/Woog -->
        <stop busStop="-15624443" duration="20" until="378.0"/> <!-- Ostbahnhof -->
    </route>
    <route id="pt_bus_MO1:0" edges="1185215707 53207959#0 53207959#1 53207959#3 150041593 196656222#0 196656222#1 196656222#2 700440130#0 700440130#1 700440128 700440129 1290085526#0 150041594#0 56163443#1 700440137 700440134 214846345#1 214846345#2 214846345#3 253272005 378479743#0 378479743#1 378479743#2 378479743#3 378479743#4 378479743#5 378479743#6 -1265069358#1 -1265069360#0" >
        <stop busStop="818872832" duration="20" until="224.0"/> <!-- Elisabethenstift/Woog -->
        <stop busStop="448433765" duration="20" until="395.0"/> <!-- Jugendstilbad -->
    </route>
    <route id="pt_bus_672:0" edges="150041578 38115189 359458217#0 359458217#2 38115188 150041593 196656222#0 196656222#1 196656222#2 700440130#0 700440130#1 700440128 700440129 1290085526#0 150041594#0 56163443#1 700440137 700440134 214846345#1 214846345#2 214846345#3 253272005 378479743#0 378479743#1 378479743#2 378479743#3 378479743#4 378479743#5 378479743#6 -1265069358#1 -1265069360#0" >
        <stop busStop="448433719" duration="20" until="46.0"/> <!-- Ostbahnhof -->
        <stop busStop="818872832" duration="20" until="267.0"/> <!-- Elisabethenstift/Woog -->
        <stop busStop="448433765" duration="20" until="437.0"/> <!-- Jugendstilbad -->
    </route>
    <route id="pt_bus_F:1" edges="1265069359 1265069358#1 -378479743#6 -378479743#5 -378479743#4 -378479743#3 -378479743#2 -378479743#1 -378479743#0 -253272005 -214846345#3 -214846345#2 -214846345#1 116556686#1 -60263960 -51873805" >
        <stop busStop="763225186" duration="20" until="34.0"/> <!-- Schloss -->
        <stop busStop="-2385375149" duration="20" until="284.0"/> <!-- Pützerstraße/Mathildenhöhe (Bushalt Richtung Süd) -->
    </route>
    <route id="pt_bus_673:1" edges="150041578 38115189 359458217#0 359458217#2 38115188 150041593 196656222#0 196656222#1 196656222#2 700440130#0 700440130#1 700440128 700440129 1290085526#0 150041594#0 56163443#1 700440137 700440134 715913363#2 1290085525#0 1290085525#1 700440148 378479743#0 378479743#1 378479743#2 378479743#3 378479743#4 378479743#5 378479743#6 -1265069358#1 -1265069360#0" >
        <stop busStop="448433719" duration="20" until="113.0"/> <!-- Ostbahnhof -->
        <stop busStop="818872832" duration="20" until="375.0"/> <!-- Elisabethenstift/Woog -->
    </route>
    <route id="pt_bus_K:0" edges="1265069359" >
        <stop busStop="763225186" duration="20" until="34.0"/> <!-- Schloss -->
    </route>
    <route id="pt_bus_H:0" edges="1265069359" >
        <stop busStop="763225186" duration="20" until="34.0"/> <!-- Schloss -->
    </route>
    <route id="pt_bus_672:1" edges="150041578 38115189 359458217#0 359458217#2 38115188 150041593 196656222#0 196656222#1 196656222#2 700440130#0 700440130#1 700440128 700440129 1290085526#0 150041594#0 56163443#1 700440137 700440134 214846345#1 214846345#2 214846345#3 253272005 378479743#0 378479743#1 378479743#2 378479743#3 378479743#4 378479743#5 378479743#6 -1265069358#1 -1265069360#0" >
        <stop busStop="448433719" duration="20" until="78.0"/> <!-- Ostbahnhof -->
        <stop busStop="818872832" duration="20" until="317.0"/> <!-- Elisabethenstift/Woog -->
        <stop busStop="448433765" duration="20" until="534.0"/> <!-- Jugendstilbad -->
    </route>
    <route id="pt_bus_FM:0" edges="51873805 60263960 116556688 43135644#0 715913363#2 1290085525#0 1290085525#1 700440148 378479743#0 378479743#1 378479743#2 378479743#3 378479743#4 378479743#5 378479743#6 -1265069358#1 -1265069360#0" >
        <stop busStop="2385375149" duration="20" until="35.0"/> <!-- Pützerstraße/Mathildenhöhe (Bushalt Richtung Süd) -->
    </route>
    <route id="pt_bus_672:3" edges="150041578 38115189 359458217#0 359458217#2 38115188 150041593 196656222#0 196656222#1 196656222#2 700440130#0 700440130#1 700440128 700440129 1290085526#0 150041594#0 56163443#1 700440137 700440134 214846345#1 214846345#2 214846345#3 253272005 378479743#0 378479743#1 378479743#2 378479743#3 378479743#4 378479743#5 378479743#6 -1265069358#1 -1265069360#0" >
        <stop busStop="448433719" duration="20" until="92.0"/> <!-- Ostbahnhof -->
        <stop busStop="818872832" duration="20" until="331.0"/> <!-- Elisabethenstift/Woog -->
        <stop busStop="448433765" duration="20" until="548.0"/> <!-- Jugendstilbad -->
    </route>
    <route id="pt_bus_673:2" edges="1265069359 1265069358#1 -378479743#6 -378479743#5 -378479743#4 -378479743#3 -378479743#2 -378479743#1 -378479743#0 -253272005 -214846345#3 -214846345#2 -214846345#1 -38115197#1 -38115197#0 -700440136 -56163443#3 -150041594#1 -1290085526#1 -700440129 -700440128 -700440130#1 -700440130#0 -196656222#2 -196656222#1 -196656222#0 -53207957 150041579#0 150041579#2" >
        <stop busStop="763225186" duration="20" until="34.0"/> <!-- Schloss -->
        <stop busStop="-243169788" duration="20" until="180.0"/> <!-- Jugendstilbad -->
        <stop busStop="-25599407" duration="20" until="356.0"/> <!-- Elisabethenstift/Woog -->
        <stop busStop="-15624443" duration="20" until="499.0"/> <!-- Ostbahnhof -->
    </route>
    <route id="pt_bus_673:3" edges="1265069359 1265069358#1 -378479743#6 -378479743#5 -378479743#4 -378479743#3 -378479743#2 -378479743#1 -378479743#0 -253272005 -214846345#3 -214846345#2 -214846345#1 -38115197#1 -38115197#0 -700440136 -56163443#3 -150041594#1 -1290085526#1 -700440129 -700440128 -700440130#1 -700440130#0 -196656222#2 -196656222#1 -196656222#0 -53207957 150041579#0 150041579#2" >
        <stop busStop="763225186" duration="20" until="34.0"/> <!-- Schloss -->
        <stop busStop="-243169788" duration="20" until="257.0"/> <!-- Jugendstilbad -->
        <stop busStop="-25599407" duration="20" until="328.0"/> <!-- Elisabethenstift/Woog -->
        <stop busStop="-15624443" duration="20" until="469.0"/> <!-- Ostbahnhof -->
    </route>
    <route id="pt_bus_X69:1" edges="1265069359 1265069358#1 -378479743#6 -378479743#5 -378479743#4 -378479743#3 -378479743#2 -378479743#1 -378479743#0 -253272005 -214846345#3 -214846345#2 -214846345#1 -38115197#1 -38115197#0 -700440136 -56163443#3 -150041594#1 -1290085526#1 -700440129 -700440128 -700440130#1 -700440130#0 -196656222#2 -196656222#1 -196656222#0 -53207957 150041579#0 150041579#2" >
        <stop busStop="763225186" duration="20" until="35.0"/> <!-- Schloss -->
        <stop busStop="-243169788" duration="20" until="116.0"/> <!-- Jugendstilbad -->
        <stop busStop="-15624443" duration="20" until="327.0"/> <!-- Ostbahnhof -->
    </route>
    <route id="pt_bus_671:0" edges="150041578 38115189 359458217#0 359458217#2 38115188 150041593 196656222#0 196656222#1 196656222#2 700440130#0 700440130#1 700440128 700440129 1290085526#0 150041594#0 56163443#1 700440137 700440134 214846345#1 214846345#2 214846345#3 253272005 378479743#0 378479743#1 378479743#2 378479743#3 378479743#4 378479743#5 378479743#6 -1265069358#1 -1265069360#0" >
        <stop busStop="448433719" duration="20" until="89.0"/> <!-- Ostbahnhof -->
        <stop busStop="818872832" duration="20" until="351.0"/> <!-- Elisabethenstift/Woog -->
        <stop busStop="448433765" duration="20" until="597.0"/> <!-- Jugendstilbad -->
    </route>
    <route id="pt_bus_L:0" edges="1265069359 1265069358#1 -378479743#6 -378479743#5 -378479743#4 -378479743#3 -378479743#2 -378479743#1 -378479743#0 700440131 506015829#1 506015832 700440133 214812788#2 73372559" >
        <stop busStop="763225186" duration="20" until="35.0"/> <!-- Schloss -->
    </route>
    <route id="pt_bus_671:2" edges="1265069359 1265069358#1 -378479743#6 -378479743#5 -378479743#4 -378479743#3 -378479743#2 -378479743#1 -378479743#0 -253272005 -214846345#3 -214846345#2 -214846345#1 -38115197#1 -38115197#0 -700440136 -56163443#3 -150041594#1 -1290085526#1 -700440129 -700440128 -700440130#1 -700440130#0 -196656222#2 -196656222#1 -196656222#0 -53207957 150041579#0 150041579#2" >
        <stop busStop="763225186" duration="20" until="35.0"/> <!-- Schloss -->
        <stop busStop="-243169788" duration="20" until="200.0"/> <!-- Jugendstilbad -->
        <stop busStop="-25599407" duration="20" until="271.0"/> <!-- Elisabethenstift/Woog -->
        <stop busStop="-15624443" duration="20" until="366.0"/> <!-- Ostbahnhof -->
    </route>
    <route id="pt_bus_671:1" edges="150041578 38115189 359458217#0 359458217#2 38115188 150041593 196656222#0 196656222#1 196656222#2 700440130#0 700440130#1 700440128 700440129 1290085526#0 150041594#0 56163443#1 700440137 700440134 214846345#1 214846345#2 214846345#3 253272005 378479743#0 378479743#1 378479743#2 378479743#3 378479743#4 378479743#5 378479743#6 -1265069358#1 -1265069360#0" >
        <stop busStop="448433719" duration="20" until="122.0"/> <!-- Ostbahnhof -->
        <stop busStop="818872832" duration="20" until="405.0"/> <!-- Elisabethenstift/Woog -->
        <stop busStop="448433765" duration="20" until="628.0"/> <!-- Jugendstilbad -->
    </route>
    <route id="pt_bus_673:4" edges="150041578 38115189 359458217#0 359458217#2 38115188 150041593 196656222#0 196656222#1 196656222#2 700440130#0 700440130#1 700440128 700440129 1290085526#0 150041594#0 56163443#1 700440137 700440134 214846345#1 214846345#2 214846345#3 253272005 378479743#0 378479743#1 378479743#2 378479743#3 378479743#4 378479743#5 378479743#6 -1265069358#1 -1265069360#0" >
        <stop busStop="448433719" duration="20" until="46.0"/> <!-- Ostbahnhof -->
        <stop busStop="818872832" duration="20" until="265.0"/> <!-- Elisabethenstift/Woog -->
        <stop busStop="448433765" duration="20" until="522.0"/> <!-- Jugendstilbad -->
    </route>
    <route id="pt_bus_MO1:1" edges="1265069359 1265069358#1 -378479743#6 -378479743#5 -378479743#4 -378479743#3 -378479743#2 -378479743#1 -378479743#0 -253272005 -214846345#3 -214846345#2 -214846345#1 -38115197#1 -38115197#0 -700440136 -56163443#3 -150041594#1 -1290085526#1 -700440129 -700440128 -700440130#1 -700440130#0 -150041565" >
        <stop busStop="763225186" duration="20" until="34.0"/> <!-- Schloss -->
        <stop busStop="-243169788" duration="20" until="171.0"/> <!-- Jugendstilbad -->
        <stop busStop="-25599407" duration="20" until="375.0"/> <!-- Elisabethenstift/Woog -->
    </route>
    <route id="pt_bus_X69:0" edges="150041578 38115189 359458217#0 359458217#2 38115188 150041593 196656222#0 196656222#1 196656222#2 700440130#0 700440130#1 700440128 700440129 1290085526#0 150041594#0 56163443#1 700440137 700440134 214846345#1 214846345#2 214846345#3 253272005 378479743#0 378479743#1 378479743#2 378479743#3 378479743#4 378479743#5 378479743#6 700236092#0 700236092#1 700236093 44973978 506013711#1 35574708#1" >
        <stop busStop="448433719" duration="20" until="134.0"/> <!-- Ostbahnhof -->
        <stop busStop="448433765" duration="20" until="639.0"/> <!-- Jugendstilbad -->
    </route>
    <route id="pt_bus_X74:0" edges="1265069359 1265069358#1 -378479743#6 -378479743#5 -378479743#4 -378479743#3 -378479743#2 -378479743#1 -378479743#0 -253272005 -214846345#3 -214846345#2 -214846345#1 -38115197#1 -38115197#0 -700440136 -56163443#3 -150041594#1 -1290085526#1 -700440129 -700440128 -700440130#1 -700440130#0 -196656222#2 -196656222#1 -196656222#0 -53207957 150041579#0 150041579#2" >
        <stop busStop="763225186" duration="20" until="34.0"/> <!-- Schloss -->
        <stop busStop="-243169788" duration="20" until="191.0"/> <!-- Jugendstilbad -->
        <stop busStop="-15624443" duration="20" until="293.0"/> <!-- Ostbahnhof -->
    </route>
    <route id="pt_bus_X78:1" edges="150041578 38115189 359458217#0 359458217#2 38115188 150041593 196656222#0 196656222#1 196656222#2 700440130#0 700440130#1 700440128 700440129 1290085526#0 150041594#0 56163443#1 700440137 700440134 214846345#1 214846345#2 214846345#3 253272005 378479743#0 378479743#1 378479743#2 378479743#3 378479743#4 378479743#5 378479743#6 -1265069358#1 -1265069360#0" >
        <stop busStop="448433719" duration="20" until="75.0"/> <!-- Ostbahnhof -->
        <stop busStop="818872832" duration="20" until="279.0"/> <!-- Elisabethenstift/Woog -->
        <stop busStop="448433765" duration="20" until="578.0"/> <!-- Jugendstilbad -->
    </route>
    <route id="pt_bus_X78:3" edges="150041578 38115189 359458217#0 359458217#2 38115188 150041593 196656222#0 196656222#1 196656222#2 700440130#0 700440130#1 700440128 700440129 1290085526#0 150041594#0 56163443#1 700440137 700440134 214846345#1 214846345#2 214846345#3 253272005 378479743#0 378479743#1 378479743#2 378479743#3 378479743#4 378479743#5 378479743#6 -1265069358#1 -1265069360#0" >
        <stop busStop="448433719" duration="20" until="95.0"/> <!-- Ostbahnhof -->
        <stop busStop="448433765" duration="20" until="598.0"/> <!-- Jugendstilbad -->
    </route>
    <route id="pt_bus_X78:5" edges="150041578 38115189 359458217#0 359458217#2 38115188 150041593 196656222#0 196656222#1 196656222#2 700440130#0 700440130#1 700440128 700440129 1290085526#0 150041594#0 56163443#1 700440137 700440134 214846345#1 214846345#2 214846345#3 253272005 378479743#0 378479743#1 378479743#2 378479743#3 378479743#4 378479743#5 378479743#6 -1265069358#1 -1265069360#0" >
        <stop busStop="448433719" duration="20" until="116.0"/> <!-- Ostbahnhof -->
        <stop busStop="448433765" duration="20" until="616.0"/> <!-- Jugendstilbad -->
    </route>
    <route id="pt_bus_X78:7" edges="150041578 38115189 359458217#0 359458217#2 38115188 150041593 196656222#0 196656222#1 196656222#2 700440130#0 700440130#1 700440128 700440129 1290085526#0 150041594#0 56163443#1 700440137 700440134 214846345#1 214846345#2 214846345#3 253272005 378479743#0 378479743#1 378479743#2 378479743#3 378479743#4 378479743#5 378479743#6 -1265069358#1 -1265069360#0" >
        <stop busStop="448433719" duration="20" until="137.0"/> <!-- Ostbahnhof -->
        <stop busStop="448433765" duration="20" until="638.0"/> <!-- Jugendstilbad -->
    </route>
    <route id="pt_bus_RH:1" edges="1265069359 1265069358#1 -378479743#6 -378479743#5 -378479743#4 -378479743#3 -378479743#2 -378479743#1 -378479743#0 -253272005 -214846345#3 -214846345#2 -214846345#1 -38115197#1 -38115197#0 -700440136 -56163443#3 -150041594#1 -1290085526#1 -700440129 -700440128 -700440130#1 -700440130#0 -150041565" >
        <stop busStop="763225186" duration="20" until="35.0"/> <!-- Schloss -->
        <stop busStop="-243169788" duration="20" until="162.0"/> <!-- Jugendstilbad -->
        <stop busStop="-25599407" duration="20" until="367.0"/> <!-- Elisabethenstift/Woog -->
    </route>
    <route id="pt_bus_671:3" edges="150041578 38115189 359458217#0 359458217#2 38115188 150041593 196656222#0 196656222#1 196656222#2 700440130#0 700440130#1 700440128 700440129 1290085526#0 150041594#0 56163443#1 700440137 700440134 214846345#1 214846345#2 214846345#3 253272005 378479743#0 378479743#1 378479743#2 378479743#3 378479743#4 378479743#5 378479743#6 -1265069358#1 -1265069360#0" >
        <stop busStop="448433719" duration="20" until="141.0"/> <!-- Ostbahnhof -->
        <stop busStop="818872832" duration="20" until="241.0"/> <!-- Elisabethenstift/Woog -->
        <stop busStop="448433765" duration="20" until="642.0"/> <!-- Jugendstilbad -->
    </route>
    <route id="pt_bus_NHX:0" edges="150041578 38115189 359458217#0 359458217#2 38115188 150041593 196656222#0 196656222#1 196656222#2 700440130#0 700440130#1 700440128 700440129 1290085526#0 150041594#0 56163443#1 700440137 700440134 214846345#1 214846345#2 214846345#3 253272005 378479743#0 378479743#1 378479743#2 378479743#3 378479743#4 378479743#5 378479743#6 -1265069358#1 -1265069360#0" >
        <stop busStop="448433719" duration="20" until="117.0"/> <!-- Ostbahnhof -->
        <stop busStop="818872832" duration="20" until="257.0"/> <!-- Elisabethenstift/Woog -->
        <stop busStop="448433765" duration="20" until="616.0"/> <!-- Jugendstilbad -->
    </route>
    <route id="pt_bus_X71:0" edges="1265069359 1265069358#1 -378479743#6 -378479743#5 -378479743#4 -378479743#3 -378479743#2 -378479743#1 -378479743#0 -253272005 -214846345#3 -214846345#2 -214846345#1 -38115197#1 -38115197#0 -700440136 -56163443#3 -150041594#1 -1290085526#1 -700440129 -700440128 -700440130#1 -700440130#0 -196656222#2 -196656222#1 -196656222#0 -53207957 150041579#0 150041579#2" >
        <stop busStop="763225186" duration="20" until="33.0"/> <!-- Schloss -->
        <stop busStop="-243169788" duration="20" until="297.0"/> <!-- Jugendstilbad -->
        <stop busStop="-15624443" duration="20" until="412.0"/> <!-- Ostbahnhof -->
    </route>
    <route id="pt_bus_X71:1" edges="150041578 38115189 359458217#0 359458217#2 38115188 150041593 196656222#0 196656222#1 196656222#2 700440130#0 700440130#1 700440128 700440129 1290085526#0 150041594#0 56163443#1 700440137 700440134 214846345#1 214846345#2 214846345#3 253272005 378479743#0 378479743#1 378479743#2 378479743#3 378479743#4 378479743#5 378479743#6 -1265069358#1 -1265069360#0" >
        <stop busStop="448433719" duration="20" until="99.0"/> <!-- Ostbahnhof -->
        <stop busStop="448433765" duration="20" until="597.0"/> <!-- Jugendstilbad -->
    </route>
    <route id="pt_bus_X74:1" edges="150041578 38115189 359458217#0 359458217#2 38115188 150041593 196656222#0 196656222#1 196656222#2 700440130#0 700440130#1 700440128 700440129 1290085526#0 150041594#0 56163443#1 700440137 700440134 214846345#1 214846345#2 214846345#3 253272005 378479743#0 378479743#1 378479743#2 378479743#3 378479743#4 378479743#5 378479743#6 -1265069358#1 -1265069360#0" >
        <stop busStop="448433719" duration="20" until="129.0"/> <!-- Ostbahnhof -->
        <stop busStop="448433765" duration="20" until="626.0"/> <!-- Jugendstilbad -->
    </route>
    <route id="pt_bus_K:1" edges="1265069359" >
        <stop busStop="763225186" duration="20" until="35.0"/> <!-- Schloss -->
    </route>
    <route id="pt_bus_GB:1" edges="1265069359 1265069358#1 -378479743#6 -378479743#5 -378479743#4 -378479743#3 -378479743#2 -378479743#1 -378479743#0 -253272005 -214846345#3 -214846345#2 -214846345#1 -38115197#1 -38115197#0 -700440136 -56163443#3 -150041594#1 -1290085526#1 -700440129 -700440128 -700440130#1 -700440130#0 -150041565" >
        <stop busStop="763225186" duration="20" until="34.0"/> <!-- Schloss -->
        <stop busStop="-243169788" duration="20" until="256.0"/> <!-- Jugendstilbad -->
        <stop busStop="-25599407" duration="20" until="421.0"/> <!-- Elisabethenstift/Woog -->
    </route>
    <route id="pt_bus_X78:0" edges="1265069359 1265069358#1 -378479743#6 -378479743#5 -378479743#4 -378479743#3 -378479743#2 -378479743#1 -378479743#0 -253272005 -214846345#3 -214846345#2 -214846345#1 -38115197#1 -38115197#0 -700440136 -56163443#3 -150041594#1 -1290085526#1 -700440129 -700440128 -700440130#1 -700440130#0 -196656222#2 -196656222#1 -196656222#0 -53207957 150041579#0 150041579#2" >
        <stop busStop="763225186" duration="20" until="34.0"/> <!-- Schloss -->
        <stop busStop="-243169788" duration="20" until="349.0"/> <!-- Jugendstilbad -->
        <stop busStop="-25599407" duration="20" until="421.0"/> <!-- Elisabethenstift/Woog -->
        <stop busStop="-15624443" duration="20" until="514.0"/> <!-- Ostbahnhof -->
    </route>
    <route id="pt_bus_678:0" edges="1265069359 1265069358#1 -378479743#6 -378479743#5 -378479743#4 -378479743#3 -378479743#2 -378479743#1 -378479743#0 700440131 506015829#1 506015832 700440133 214812788#2 73372559" >
        <stop busStop="763225186" duration="20" until="34.0"/> <!-- Schloss -->
    </route>
    <route id="pt_bus_X78:2" edges="1265069359 1265069358#1 -378479743#6 -378479743#5 -378479743#4 -378479743#3 -378479743#2 -378479743#1 -378479743#0 -253272005 -214846345#3 -214846345#2 -214846345#1 -38115197#1 -38115197#0 -700440136 -56163443#3 -150041594#1 -1290085526#1 -700440129 -700440128 -700440130#1 -700440130#0 -196656222#2 -196656222#1 -196656222#0 -53207957 150041579#0 150041579#2" >
        <stop busStop="763225186" duration="20" until="34.0"/> <!-- Schloss -->
        <stop busStop="-243169788" duration="20" until="321.0"/> <!-- Jugendstilbad -->
        <stop busStop="-25599407" duration="20" until="481.0"/> <!-- Elisabethenstift/Woog -->
        <stop busStop="-15624443" duration="20" until="592.0"/> <!-- Ostbahnhof -->
    </route>
    <route id="pt_bus_X78:4" edges="1265069359 1265069358#1 -378479743#6 -378479743#5 -378479743#4 -378479743#3 -378479743#2 -378479743#1 -378479743#0 -253272005 -214846345#3 -214846345#2 -214846345#1 -38115197#1 -38115197#0 -700440136 -56163443#3 -150041594#1 -1290085526#1 -700440129 -700440128 -700440130#1 -700440130#0 -196656222#2 -196656222#1 -196656222#0 -53207957 150041579#0 150041579#2" >
        <stop busStop="763225186" duration="20" until="34.0"/> <!-- Schloss -->
        <stop busStop="-243169788" duration="20" until="412.0"/> <!-- Jugendstilbad -->
        <stop busStop="-15624443" duration="20" until="626.0"/> <!-- Ostbahnhof -->
    </route>
    <route id="pt_bus_X78:6" edges="1265069359 1265069358#1 -378479743#6 -378479743#5 -378479743#4 -378479743#3 -378479743#2 -378479743#1 -378479743#0 -253272005 -214846345#3 -214846345#2 -214846345#1 -38115197#1 -38115197#0 -700440136 -56163443#3 -150041594#1 -1290085526#1 -700440129 -700440128 -700440130#1 -700440130#0 -196656222#2 -196656222#1 -196656222#0 -53207957 150041579#0 150041579#2" >
        <stop busStop="763225186" duration="20" until="34.0"/> <!-- Schloss -->
        <stop busStop="-243169788" duration="20" until="382.0"/> <!-- Jugendstilbad -->
        <stop busStop="-15624443" duration="20" until="631.0"/> <!-- Ostbahnhof -->
    </route>
    <route id="pt_bus_FM:1" edges="1265069359 1265069358#1 -378479743#6 -378479743#5 -378479743#4 -378479743#3 -378479743#2 -378479743#1 -378479743#0 -253272005 -214846345#3 -214846345#2 -214846345#1 116556686#1 -60263960 -51873805" >
        <stop busStop="763225186" duration="20" until="34.0"/> <!-- Schloss -->
    </route>
    <route id="pt_bus_671:4" edges="1265069359 1265069358#1 -378479743#6 -378479743#5 -378479743#4 -378479743#3 -378479743#2 -378479743#1 -378479743#0 -253272005 -214846345#3 -214846345#2 -214846345#1 -38115197#1 -38115197#0 -700440136 -56163443#3 -150041594#1 -1290085526#1 -700440129 -700440128 -700440130#1 -700440130#0 -196656222#2 -196656222#1 -196656222#0 -53207957 150041579#0 150041579#2" >
        <stop busStop="763225186" duration="20" until="34.0"/> <!-- Schloss -->
        <stop busStop="-243169788" duration="20" until="472.0"/> <!-- Jugendstilbad -->
        <stop busStop="-25599407" duration="20" until="541.0"/> <!-- Elisabethenstift/Woog -->
        <stop busStop="-15624443" duration="20" until="664.0"/> <!-- Ostbahnhof -->
    </route>
    <route id="pt_bus_671:5" edges="1265069359 1265069358#1 -378479743#6 -378479743#5 -378479743#4 -378479743#3 -378479743#2 -378479743#1 -378479743#0 -253272005 -214846345#3 -214846345#2 -214846345#1 -38115197#1 -38115197#0 -700440136 -56163443#3 -150041594#1 -1290085526#1 -700440129 -700440128 -700440130#1 -700440130#0 -196656222#2 -196656222#1 -196656222#0 -53207957 150041579#0 150041579#2" >
        <stop busStop="763225186" duration="20" until="35.0"/> <!-- Schloss -->
        <stop busStop="-243169788" duration="20" until="433.0"/> <!-- Jugendstilbad -->
        <stop busStop="-25599407" duration="20" until="593.0"/> <!-- Elisabethenstift/Woog -->
        <stop busStop="-15624443" duration="20" until="731.0"/> <!-- Ostbahnhof -->
    </route>
    <route id="pt_bus_672:4" edges="1265069359 1265069358#1 -378479743#6 -378479743#5 -378479743#4 -378479743#3 -378479743#2 -378479743#1 -378479743#0 -253272005 -214846345#3 -214846345#2 -214846345#1 -38115197#1 -38115197#0 -700440136 -56163443#3 -150041594#1 -1290085526#1 -700440129 -700440128 -700440130#1 -700440130#0 -196656222#2 -196656222#1 -196656222#0 -53207957 150041579#0 150041579#2" >
        <stop busStop="763225186" duration="20" until="34.0"/> <!-- Schloss -->
        <stop busStop="-243169788" duration="20" until="352.0"/> <!-- Jugendstilbad -->
        <stop busStop="-25599407" duration="20" until="451.0"/> <!-- Elisabethenstift/Woog -->
        <stop busStop="-15624443" duration="20" until="589.0"/> <!-- Ostbahnhof -->
    </route>
    <route id="pt_bus_NHX:1" edges="1265069359 1265069358#1 -378479743#6 -378479743#5 -378479743#4 -378479743#3 -378479743#2 -378479743#1 -378479743#0 -253272005 -214846345#3 -214846345#2 -214846345#1 -38115197#1 -38115197#0 -700440136 -56163443#3 -150041594#1 -1290085526#1 -700440129 -700440128 -700440130#1 -700440130#0 -196656222#2 -196656222#1 -196656222#0 -53207957 150041579#0 150041579#2" >
        <stop busStop="763225186" duration="20" until="34.0"/> <!-- Schloss -->
        <stop busStop="-243169788" duration="20" until="354.0"/> <!-- Jugendstilbad -->
        <stop busStop="-25599407" duration="20" until="507.0"/> <!-- Elisabethenstift/Woog -->