<?xml version='1.0' encoding='utf-8'?>
<routes xmlns:xsi="http://www.w3.org/2001/XMLSchema-instance" xsi:noNamespaceSchemaLocation="http://sumo.dlr.de/xsd/routes_file.xsd">
    <vType id="bus" vClass="bus" />
    <vehicle id="bus0" type="bus" depart="0.00" departLane="free">
        <route edges="4019053#2 -150032770#6 -150032770#5 -150032770#2 -150032770#1" />
    </vehicle>
    <vehicle id="bus1" type="bus" depart="1.00" departLane="free">
        <route edges="-700440130#1 -700440130#0 700440130#0 700440130#1 700440128 700440129 1290085526#0 150041594#0 -150041551#3 -4295817#3 -4295817#1" />
    </vehicle>
    <vehicle id="bus2" type="bus" depart="2.00" departLane="free">
        <route edges="484022097 4144040#3" />
    </vehicle>
    <vehicle id="bus3" type="bus" depart="3.00" departLane="free">
        <route edges="700440134 214846345#2 214846345#3 253272005 700440131 506015829#1 E0 E2 378479740#1 -700440136 -56163443#3 -150041594#1 -1290085526#1 -700440129 -700440128 -700440130#1 -700440130#0 -196656222#2 -196656222#1" />
    </vehicle>
    <vehicle id="bus4" type="bus" depart="5.00" departLane="free">
        <route edges="-53207957 150041593 196656222#0 196656222#1" />
    </vehicle>
    <vehicle id="bus5" type="bus" depart="8.00" departLane="free">
        <route edges="-53207957 150041593 196656222#0 196656222#1 196656222#2 700440130#0 700440130#1 700440128 700440129 1290085526#0 150041594#0 56163443#1 700440137 700440134 214846345#2 214846345#3 253272005 700440131 506015829#1 E0 E2 378479740#1" />
    </vehicle>
    <vehicle id="bus6" type="bus" depart="9.00" departLane="free">
        <route edges="59591195#2 73372559 -689912267#0 -624481020#4 -624481020#3 -624481020#1 -624481020#0 624481020#0 624481020#1 624481020#2 624481020#4 689912267#0 214812786 715913363#2 1290085525#0 1290085525#1 700440148 378479743#0 378479743#1 378479743#2 378479743#3 378479743#4 378479743#5 378479743#6 -1265069358#1 -1265069360#0" />
    </vehicle>
    <vehicle id="bus7" type="bus" depart="10.00" departLane="free">
        <route edges="59591195#2 73372559 -689912267#0 -624481020#4 -624481020#3 -624481020#1 -624481020#0 624481020#0 624481020#1 624481020#2 624481020#4 689912267#0 214812786 116556686#1 -60263960 -4195580#2 -4195580#1 -4195580#0 4195580#0 4195580#1" />
    </vehicle>
    <vehicle id="bus8" type="bus" depart="12.00" departLane="free">
        <route edges="715835444#5 23508224 -23508224 -715835444#5 -715835444#4 -715835444#3 -715835444#2" />
    </vehicle>
    <vehicle id="bus9" type="bus" depart="13.00" departLane="free">
        <route edges="-23248109#0 23248109#0 23248109#1 -378479743#3 -378479743#2 75392301#0 75392301#1 23015831 -23015831" />
    </vehicle>
    <vehicle id="bus10" type="bus" depart="15.00" departLane="free">
        <route edges="59591195#2 73372559 -689912267#0 -624481020#4 -624481020#3 -624481020#1 -624481020#0 624481020#0 624481020#1 624481020#2 624481020#4 689912267#0 214812786 378479740#1 -700440136 -56163443#3 -150041551#3 -4295817#3 -4295817#1 4295817#1 4295817#3" />
    </vehicle>
    <vehicle id="bus11" type="bus" depart="16.00" departLane="free">
        <route edges="23508141#1 70205228#0 70205228#1 70205228#2 -70205228#2 -70205228#1 -70205228#0 -23508141#1 -715835444#1 60263960 116556688 43135644#0 715913363#2 1290085525#0 1290085525#1 700440148 378479743#0 378479743#1 75392301#0" />
    </vehicle>
    <vehicle id="bus12" type="bus" depart="17.00" departLane="free">
        <route edges="1290085525#1 700440148 700440131 506015829#1 E0 E2 116556686#1 -60263960 715835444#1 23508141#1" />
    </vehicle>
    <vehicle id="bus13" type="bus" depart="18.00" departLane="free">
        <route edges="624481020#2 624481020#4 689912267#0 214812786 715913363#2 1290085525#0 1290085525#1 700440148 378479743#0 378479743#1 378479743#2 378479743#3 378479743#4" />
    </vehicle>
    <vehicle id="bus14" type="bus" depart="19.00" departLane="free">
        <route edges="700440128 700440129 1290085526#0 150041594#0 56163443#1 700440137 700440134 715913363#2 1290085525#0 1290085525#1 700440148 378479743#0 378479743#1 378479743#2 378479743#3 378479743#4 378479743#5 378479743#6 -1265069358#1 -1265069360#0 1265069359 254075881#1" />
    </vehicle>
    <vehicle id="bus15" type="bus" depart="20.00" departLane="free">
        <route edges="4295817#0 4295817#1 4295817#3 -150041551#1 -150041551#0" />
    </vehicle>
    <vehicle id="bus16" type="bus" depart="21.00" departLane="free">
        <route edges="-60263960 60263960 116556688 43135644#0 378479740#1 -700440136 -56163443#3 -150041594#1 -1290085526#1 -700440129 -700440128" />
    </vehicle>
    <vehicle id="bus17" type="bus" depart="22.00" departLane="free">
        <route edges="-196656222#2 -196656222#1 -196656222#0 -53207957 150041593 196656222#0 196656222#1 196656222#2 700440130#0 700440130#1 700440128 700440129 1290085526#0 150041594#0 56163443#1 700440137 700440134 715913363#2 1290085525#0 1290085525#1 -4144040#4 -4144040#3 -484022097" />
    </vehicle>
    <vehicle id="bus18" type="bus" depart="24.00" departLane="free">
        <route edges="395456769#1 492925919 254075881#1 449551311 44973978 506013711#1 4019053#2 -150032770#6 -150032770#5 -150032770#2 -150032770#1 -150032770#0 150032770#0 150032770#1 150032770#2 150032770#5 150032770#6 103958941#0" />
    </vehicle>
    <vehicle id="bus19" type="bus" depart="25.00" departLane="free">
        <route edges="1265069359 1265069358#1 -378479743#6 -378479743#5 -378479743#4 -378479743#3 -378479743#2 -378479743#1 -378479743#0 700440131 506015829#1 E0 E2 116556686#1 -60263960 -4195580#2" />
    </vehicle>
    <vehicle id="bus20" type="bus" depart="26.00" departLane="free">
        <route edges="-700440130#0 700440130#0 700440130#1 700440128 700440129 1290085526#0 150041594#0 56163443#1 700440137 700440134 116556686#1 -60263960 715835444#1" />
    </vehicle>
    <vehicle id="bus21" type="bus" depart="27.00" departLane="free">
        <route edges="4144040#0 4144040#1 4144040#2 4144040#3 4144040#4 700440148 378479743#0 378479743#1 378479743#2 378479743#3" />
    </vehicle>
    <vehicle id="bus22" type="bus" depart="28.00" departLane="free">
        <route edges="-4144040#3 4144040#3 4144040#4 700440148 700440131 506015829#1 E0 E2 378479740#1 -700440136 -56163443#3 -150041551#3 -4295817#3 -4295817#1 4295817#1 4295817#3" />
    </vehicle>
    <vehicle id="bus23" type="bus" depart="29.00" departLane="free">
        <route edges="-4144040#2 -4144040#1 4144040#1 4144040#2 4144040#3 4144040#4 700440148 700440131 506015829#1 E0 E2 116556686#1" />
    </vehicle>
    <vehicle id="bus24" type="bus" depart="30.00" departLane="free">
        <route edges="E0 E2 378479740#1 -700440136 -56163443#3 -150041594#1 -1290085526#1 -700440129 -700440128 -700440130#1 -700440130#0 -196656222#2 -196656222#1 -196656222#0 -53207957 150041579#0 150041579#2 150041578 150041580 149518769#1 38115188" />
    </vehicle>
    <vehicle id="bus25" type="bus" depart="32.00" departLane="free">
        <route edges="689912267#0 214812786 214846345#2 214846345#3 253272005 700440131 506015829#1" />
    </vehicle>
    <vehicle id="bus26" type="bus" depart="33.00" departLane="free">
        <route edges="-60263960 60263960 116556688 43135644#0 715913363#2 1290085525#0 1290085525#1 700440148 378479743#0 378479743#1 378479743#2 378479743#3 378479743#4 378479743#5 378479743#6 700236092#0 700236092#1 700236093 44973978 506013711#1 4019053#2 -150032770#6 -150032770#5 -150032770#2" />
    </vehicle>
    <vehicle id="bus27" type="bus" depart="34.00" departLane="free">
        <route edges="-715835444#3 -715835444#2 -715835444#1 60263960 116556688 43135644#0 214812788#2 73372559 -689912267#0 -624481020#4 -624481020#3 -624481020#1" />
    </vehicle>
    <vehicle id="bus28" type="bus" depart="35.00" departLane="free">
        <route edges="-4295817#3 -4295817#1 -23508224 -715835444#5 -715835444#4 -715835444#3 -715835444#2 715835444#2" />
    </vehicle>
    <vehicle id="bus29" type="bus" depart="36.00" departLane="free">
        <route edges="700440130#0 700440130#1 700440128 700440129 1290085526#0 150041594#0 56163443#1 700440137 700440134 116556686#1 -60263960 715835444#1 23508141#1 70205228#0 70205228#1 70205228#2 -70205228#2 -70205228#1 -70205228#0" />
    </vehicle>
    <vehicle id="bus30" type="bus" depart="37.00" departLane="free">
        <route edges="4144040#1 4144040#2 -4144040#2 -4144040#1 4195580#0 4195580#1 4195580#2 60263960 116556688 43135644#0 715913363#2 1290085525#0" />
    </vehicle>
    <vehicle id="bus31" type="bus" depart="38.00" departLane="free">
        <route edges="700440148 700440131 506015829#1 E0 E2 378479740#1 -700440136 -56163443#3 -150041594#1 -1290085526#1 -700440129 -700440128 -700440130#1 -700440130#0 -196656222#2 -196656222#1 -196656222#0 -53207957 150041579#0 150041579#2 150041578" />
    </vehicle>
    <vehicle id="bus32" type="bus" depart="39.00" departLane="free">
        <route edges="-700440129 700440129 1290085526#0 150041594#0 56163443#1 700440137 -700440136 -56163443#3" />
    </vehicle>
    <vehicle id="bus33" type="bus" depart="41.00" departLane="free">
        <route edges="378479743#2 378479743#3 -23248109#1 23248109#1 -378479743#3 -378479743#2 -378479743#1 -378479743#0 700440131 506015829#1 E0 E2 378479740#1 -700440136 -56163443#3 56163443#1 700440137" />
    </vehicle>
    <vehicle id="bus34" type="bus" depart="43.00" departLane="free">
        <route edges="E2 378479740#1 -700440136 -56163443#3 -150041594#1 -1290085526#1 -700440129 -700440128 -700440130#1 -700440130#0 -196656222#2 -196656222#1 -196656222#0 -53207957 150041593 196656222#0 196656222#1 196656222#2" />
    </vehicle>
    <vehicle id="bus35" type="bus" depart="44.00" departLane="free">
        <route edges="-23248109#0 23248109#0 23248109#1 -378479743#3 -378479743#2 -378479743#1 -378479743#0 700440131 506015829#1 E0 E2 378479740#1 -700440136 -56163443#3 -150041551#3 -150041551#1 -150041551#0" />
    </vehicle>
    <vehicle id="bus36" type="bus" depart="45.00" departLane="free">
        <route edges="-23508141#1 -715835444#1 60263960 116556688 43135644#0 715913363#2 1290085525#0 1290085525#1 700440148 378479743#0 378479743#1 378479743#2 378479743#3 378479743#4 378479743#5 378479743#6" />
    </vehicle>
    <vehicle id="bus37" type="bus" depart="46.00" departLane="free">
        <route edges="56163443#1 700440137 700440134 715913363#2 1290085525#0 1290085525#1 700440148 378479743#0 378479743#1 378479743#2 378479743#3 378479743#4 378479743#5 378479743#6 700236092#0 700236092#1 700236093 44973978 506013711#1 4019053#2 -150032770#6 -150032770#5 -150032770#2 -150032770#1 -150032770#0 150032770#0 150032770#1" />
    </vehicle>
    <vehicle id="bus38" type="bus" depart="47.00" departLane="free">
        <route edges="-182982119#1 56163443#1 700440137 700440134 116556686#1 -60263960 60263960 116556688" />
    </vehicle>
    <vehicle id="bus39" type="bus" depart="48.00" departLane="free">
        <route edges="E2 -38115197#0 700440134 715913363#2 1290085525#0 1290085525#1 700440148 378479743#0 378479743#1 75392301#0 75392301#1 23015831" />
    </vehicle>
    <vehicle id="bus40" type="bus" depart="49.00" departLane="free">
        <route edges="73372559 -689912267#0 -624481020#4 -624481020#3 -624481020#1 -624481020#0 624481020#0 624481020#1 624481020#2 624481020#4 689912267#0 214812786 378479740#1 -700440136 -56163443#3 -150041594#1 -1290085526#1 -700440129 -700440128 -700440130#1 -700440130#0 700440130#0 700440130#1 700440128" />
    </vehicle>
    <vehicle id="bus41" type="bus" depart="51.00" departLane="free">
        <route edges="4195580#1 4195580#2 60263960 116556688 43135644#0 715913363#2 1290085525#0 1290085525#1 700440148 378479743#0 378479743#1 378479743#2 378479743#3 -23248109#1 23248109#1" />
    </vehicle>
    <vehicle id="bus42" type="bus" depart="52.00" departLane="free">
        <route edges="-700440130#0 -196656222#2 -196656222#1 -196656222#0 -53207957 150041579#0 150041579#2 150041578 150041580 149518769#1 38115188" />
    </vehicle>
    <vehicle id="bus43" type="bus" depart="53.00" departLane="free">
        <route edges="-23508224 -715835444#5 -715835444#4 150041551#0 150041551#1 150041551#2 56163443#1 700440137 700440134 715913363#2 1290085525#0 1290085525#1 700440148 378479743#0 378479743#1 378479743#2 378479743#3 378479743#4 378479743#5 378479743#6 700236092#0 700236092#1 700236093 44973978 506013711#1 4019053#2 -150032770#6 -150032770#5 -150032770#2 -150032770#1 -150032770#0 150032770#0 150032770#1 150032770#2 150032770#5" />
    </vehicle>
    <vehicle id="bus44" type="bus" depart="54.00" departLane="free">
        <route edges="150041579#0 150041579#2 150041578 150041580 149518769#1 38115188 150041593 196656222#0 196656222#1 196656222#2 700440130#0 700440130#1 700440128 700440129 1290085526#0 150041594#0 -150041551#3 -150041551#1 -150041551#0 715835444#4" />
    </vehicle>
    <vehicle id="bus45" type="bus" depart="55.00" departLane="free">
        <route edges="700440130#0 700440130#1 700440128 700440129 1290085526#0 150041594#0 56163443#1 700440137 700440134 214812788#2 73372559 -689912267#0 -624481020#4 -624481020#3 -624481020#1" />
    </vehicle>
    <vehicle id="bus46" type="bus" depart="56.00" departLane="free">
        <route edges="214812786 715913363#2 1290085525#0 1290085525#1 -4144040#4 -4144040#3 -4144040#2 -4144040#1" />
    </vehicle>
    <vehicle id="bus47" type="bus" depart="57.00" departLane="free">
        <route edges="700440148 700440131 506015829#1 E0 E2 378479740#1 -700440136 -56163443#3 -150041594#1 -1290085526#1 -700440129 700440129" />
    </vehicle>
    <vehicle id="bus48" type="bus" depart="58.00" departLane="free">
        <route edges="-70205228#2 -70205228#1 -70205228#0 -23508141#1 715835444#2 715835444#3 150041551#0 150041551#1 150041551#2 -150041594#1 -1290085526#1 -700440129 -700440128 -700440130#1 -700440130#0 -196656222#2 -196656222#1 -196656222#0 -53207957 150041579#0 150041579#2 150041578 150041580 149518769#1 38115188" />
    </vehicle>
    <vehicle id="bus49" type="bus" depart="59.00" departLane="free">
        <route edges="378479743#6 -1265069358#1 -1265069360#0 1265069359 1265069358#1 -378479743#6 -378479743#5 -378479743#4" />
    </vehicle>
    <vehicle id="bus50" type="bus" depart="60.00" departLane="free">
        <route edges="506015829#1 E0 E2 -38115197#0 700440134 715913363#2 1290085525#0 1290085525#1 700440148 378479743#0 378479743#1 378479743#2 378479743#3 -23248109#1 23248109#1" />
    </vehicle>
    <vehicle id="bus51" type="bus" depart="61.00" departLane="free">
        <route edges="53207959#1 53207959#3 150041593 196656222#0 196656222#1 196656222#2 700440130#0 700440130#1 700440128 700440129 1290085526#0 150041594#0 56163443#1 700440137 700440134 715913363#2 1290085525#0 1290085525#1 700440148 378479743#0 378479743#1 75392301#0 75392301#1 23015831" />
    </vehicle>
    <vehicle id="bus52" type="bus" depart="62.00" departLane="free">
        <route edges="-1265069358#1 -1265069360#0 1265069359 1265069358#1 -378479743#6 -378479743#5 -378479743#4 -378479743#3 -378479743#2 -378479743#1 -378479743#0 700440131 506015829#1 E0 E2 116556686#1 -60263960 715835444#1 23508141#1 70205228#0 70205228#1 70205228#2 -70205228#2" />
    </vehicle>
    <vehicle id="bus53" type="bus" depart="64.00" departLane="free">
        <route edges="700440130#1 700440128 700440129 1290085526#0 150041594#0 56163443#1 700440137 700440134 214812788#2 73372559 -689912267#0 -624481020#4 -624481020#3 -624481020#1 -624481020#0 624481020#0 624481020#1 624481020#2" />
    </vehicle>
    <vehicle id="bus54" type="bus" depart="65.00" departLane="free">
        <route edges="-715835444#2 715835444#2 715835444#3 150041551#0 150041551#1 150041551#2 -150041551#3" />
    </vehicle>
    <vehicle id="bus55" type="bus" depart="66.00" departLane="free">
        <route edges="700440130#1 700440128 700440129 1290085526#0 150041594#0 56163443#1 700440137 700440134 116556686#1 -60263960 715835444#1 715835444#2 715835444#3" />
    </vehicle>
    <vehicle id="bus56" type="bus" depart="67.00" departLane="free">
        <route edges="-23015831 4195610#0 4195610#2 484022097 4144040#3 4144040#4 700440148 700440131 506015829#1 E0 E2 378479740#1 -700440136 -56163443#3 -150041594#1 -1290085526#1 -700440129 -700440128 -700440130#1 -700440130#0 -196656222#2 -196656222#1 -196656222#0 -53207957 150041593" />
    </vehicle>
    <vehicle id="bus57" type="bus" depart="69.00" departLane="free">
        <route edges="506015829#1 E0 E2 378479740#1 -700440136 -56163443#3 -150041594#1 -1290085526#1 -700440129 4295817#0 -23508224" />
    </vehicle>
    <vehicle id="bus58" type="bus" depart="70.00" departLane="free">
        <route edges="150041594#0 56163443#1 700440137 700440134 116556686#1 -60263960 715835444#1 23508141#1" />
    </vehicle>
    <vehicle id="bus59" type="bus" depart="71.00" departLane="free">
        <route edges="-700440129 -700440128 -700440130#1 -700440130#0 700440130#0" />
    </vehicle>
    <vehicle id="bus60" type="bus" depart="72.00" departLane="free">
        <route edges="150041551#0 150041551#1 150041551#2 56163443#1 700440137 700440134 116556686#1 -60263960 -4195580#2" />
    </vehicle>
    <vehicle id="bus61" type="bus" depart="74.00" departLane="free">
        <route edges="-4295817#1 -4295817#0 700440129 1290085526#0 150041594#0 56163443#1 700440137 -700440136" />
    </vehicle>
    <vehicle id="bus62" type="bus" depart="76.00" departLane="free">
        <route edges="150041551#2 56163443#1 700440137 700440134 214812788#2 73372559 -689912267#0 -624481020#4 -624481020#3 -624481020#1 -624481020#0 624481020#0 624481020#1 624481020#2 624481020#4 689912267#0 214812786" />
    </vehicle>
    <vehicle id="bus63" type="bus" depart="77.00" departLane="free">
        <route edges="-378479743#0 700440131 506015829#1 E0 E2 378479740#1 -700440136 -56163443#3 -150041551#3 -4295817#3" />
    </vehicle>
    <vehicle id="bus64" type="bus" depart="79.00" departLane="free">
        <route edges="-60263960 715835444#1 715835444#2 715835444#3 150041551#0 150041551#1 -4295817#3 -4295817#1" />
    </vehicle>
    <vehicle id="bus65" type="bus" depart="80.00" departLane="free">
        <route edges="-196656222#0 -53207957 150041593 196656222#0 196656222#1 196656222#2 700440130#0 700440130#1 700440128 700440129 1290085526#0 150041594#0 56163443#1 700440137 700440134 715913363#2 1290085525#0 1290085525#1 700440148 378479743#0 378479743#1 378479743#2 378479743#3 378479743#4 378479743#5 378479743#6" />
    </vehicle>
    <vehicle id="bus66" type="bus" depart="83.00" departLane="free">
        <route edges="-624481020#1 -624481020#0 624481020#0 624481020#1 624481020#2 624481020#4 689912267#0 214812786 116556686#1 -60263960 -4195580#2 -4195580#1 -4195580#0 4144040#1" />
    </vehicle>
    <vehicle id="bus67" type="bus" depart="84.00" departLane="free">
        <route edges="-484022097 484022097 4144040#3 4144040#4 700440148 378479743#0 378479743#1 378479743#2 378479743#3 -23248109#1 23248109#1 -378479743#3 -378479743#2 -378479743#1 -378479743#0" />
    </vehicle>
    <vehicle id="bus68" type="bus" depart="87.00" departLane="free">
        <route edges="59591195#2 73372559 -689912267#0 -624481020#4 -624481020#3 -624481020#1 -624481020#0 624481020#0 624481020#1 624481020#2 624481020#4 689912267#0 214812786 715913363#2 1290085525#0 1290085525#1 -4144040#4" />
    </vehicle>
    <vehicle id="bus69" type="bus" depart="88.00" departLane="free">
        <route edges="-23248109#1 23248109#1 378479743#4 378479743#5 378479743#6 700236092#0 700236092#1 700236093 44973978 506013711#1 4019053#2 -150032770#6 -150032770#5 -150032770#2 -150032770#1 -150032770#0 150032770#0 150032770#1 150032770#2 150032770#5" />
    </vehicle>
    <vehicle id="bus70" type="bus" depart="89.00" departLane="free">
        <route edges="150041551#0 150041551#1 150041551#2 -150041594#1 -1290085526#1 -700440129 -700440128 -700440130#1 -700440130#0 -196656222#2 -196656222#1 -196656222#0 -53207957 150041579#0" />
    </vehicle>
    <vehicle id="bus71" type="bus" depart="91.00" departLane="free">
        <route edges="881694399 -881694399 -182982119#1 56163443#1 700440137 700440134 715913363#2 1290085525#0 1290085525#1 700440148 378479743#0 378479743#1 75392301#0 75392301#1 23015831 -23015831" />
    </vehicle>
    <vehicle id="bus72" type="bus" depart="93.00" departLane="free">
        <route edges="700440128 700440129 1290085526#0 150041594#0 56163443#1 700440137 -700440136 -56163443#3" />
    </vehicle>
    <vehicle id="bus73" type="bus" depart="94.00" departLane="free">
        <route edges="-4195580#2 -4195580#1 -4195580#0 4195580#0 4195580#1 4195580#2 715835444#1 715835444#2 715835444#3 150041551#0 150041551#1" />
    </vehicle>
    <vehicle id="bus74" type="bus" depart="96.00" departLane="free">
        <route edges="-624481020#4 -624481020#3 -624481020#1 -624481020#0 624481020#0 624481020#1 624481020#2 624481020#4 689912267#0 214812786 116556686#1 -60263960 715835444#1 23508141#1 70205228#0 70205228#1" />
    </vehicle>
    <vehicle id="bus75" type="bus" depart="97.00" departLane="free">
        <route edges="150041565 700440130#0 700440130#1 700440128" />
    </vehicle>
    <vehicle id="bus76" type="bus" depart="98.00" departLane="free">
        <route edges="24509268 700440138 700440139 -378479743#6 -378479743#5 -378479743#4 -378479743#3 -378479743#2 -378479743#1 -378479743#0 700440131 506015829#1 E0 E2 378479740#1 -700440136 -56163443#3 -150041551#3 -150041551#1" />
    </vehicle>
    <vehicle id="bus77" type="bus" depart="99.00" departLane="free">
        <route edges="E2 59591195#0 59591195#1 59591195#2 73372559 -689912267#0 -624481020#4 -624481020#3 -624481020#1 -624481020#0 624481020#0 624481020#1 624481020#2 624481020#4" />
    </vehicle>
    <vehicle id="bus78" type="bus" depart="100.00" departLane="free">
        <route edges="73372559 -689912267#0 -624481020#4 -624481020#3 -624481020#1 -624481020#0 624481020#0 624481020#1 624481020#2 624481020#4 689912267#0 214812786 116556686#1 -60263960 715835444#1 23508141#1 70205228#0 70205228#1" />
    </vehicle>
    <vehicle id="bus79" type="bus" depart="102.00" departLane="free">
        <route edges="196656222#0 196656222#1 196656222#2 700440130#0 700440130#1 700440128 4295817#0 -4295817#0" />
    </vehicle>
    <vehicle id="bus80" type="bus" depart="104.00" departLane="free">
        <route edges="1290085525#1 700440148 700440131 506015829#1 E0 E2 378479740#1 -700440136 -56163443#3 182982119#0 881694399" />
    </vehicle>
    <vehicle id="bus81" type="bus" depart="106.00" departLane="free">
        <route edges="150041579#0 150041579#2 150041578 150041580 149518769#1 38115188 150041593 196656222#0 196656222#1 196656222#2 700440130#0 700440130#1 700440128 700440129 1290085526#0 150041594#0 56163443#1 700440137 700440134 715913363#2 1290085525#0 1290085525#1 700440148 378479743#0 378479743#1 378479743#2 378479743#3 378479743#4 378479743#5 378479743#6 700236092#0 700236092#1 700236093 44973978 506013711#1 4019053#2 -150032770#6 -150032770#5 -150032770#2 -150032770#1 -150032770#0 150032770#0 150032770#1" />
    </vehicle>
    <vehicle id="bus82" type="bus" depart="107.00" departLane="free">
        <route edges="715835444#5 23508224 -4295817#0 700440129 1290085526#0 150041594#0 56163443#1 700440137 700440134 214846345#2 214846345#3 253272005 700440131 506015829#1 E0 E2" />
    </vehicle>
    <vehicle id="bus83" type="bus" depart="109.00" departLane="free">
        <route edges="-378479743#6 -378479743#5 -378479743#4 -378479743#3 -378479743#2 -378479743#1 -378479743#0 700440131 506015829#1 E0 E2 378479740#1 -700440136 -56163443#3 -150041594#1 -1290085526#1 -700440129 -700440128 -700440130#1 -700440130#0" />
    </vehicle>
    <vehicle id="bus84" type="bus" depart="110.00" departLane="free">
        <route edges="73372559 -689912267#0 -624481020#4 -624481020#3 -624481020#1 -624481020#0 624481020#0 624481020#1 624481020#2 624481020#4 689912267#0 214812786 715913363#2 1290085525#0 1290085525#1 700440148 378479743#0 378479743#1 378479743#2 378479743#3 378479743#4 378479743#5 378479743#6 -1265069358#1 -1265069360#0 1265069359 254075881#1" />
    </vehicle>
    <vehicle id="bus85" type="bus" depart="112.00" departLane="free">
        <route edges="-150041594#1 -1290085526#1 -700440129 700440129 1290085526#0 150041594#0 56163443#1 700440137 700440134 715913363#2 1290085525#0 1290085525#1 700440148 378479743#0 378479743#1 378479743#2 378479743#3 378479743#4 378479743#5 378479743#6 700236092#0 700236092#1 700236093 44973978 506013711#1 35574708#1" />
    </vehicle>
    <vehicle id="bus86" type="bus" depart="113.00" departLane="free">
        <route edges="214812786 715913363#2 1290085525#0 1290085525#1 700440148 378479743#0 378479743#1 378479743#2 378479743#3 378479743#4 378479743#5 378479743#6 700236092#0 700236092#1" />
    </vehicle>
    <vehicle id="bus87" type="bus" depart="114.00" departLane="free">
        <route edges="-4144040#1 4195580#0 4195580#1 4195580#2 715835444#1 715835444#2 715835444#3 715835444#4 715835444#5" />
    </vehicle>
    <vehicle id="bus88" type="bus" depart="115.00" departLane="free">
        <route edges="-196656222#2 -196656222#1 -196656222#0 -53207957 150041593 196656222#0 196656222#1 196656222#2 700440130#0 700440130#1 700440128 700440129 1290085526#0 150041594#0 56163443#1 700440137 700440134 715913363#2 1290085525#0 1290085525#1 -4144040#4 -4144040#3" />
    </vehicle>
    <vehicle id="bus89" type="bus" depart="116.00" departLane="free">
        <route edges="378479743#4 378479743#5 378479743#6 -1265069358#1 -1265069360#0 1265069359 1265069358#1 -378479743#6 -378479743#5 -378479743#4 -378479743#3 -378479743#2 75392301#0 75392301#1 4195610#0 4195610#2 484022097 -4144040#2 -4144040#1 4144040#1 4144040#2" />
    </vehicle>
    <vehicle id="bus90" type="bus" depart="117.00" departLane="free">
        <route edges="-624481020#1 -624481020#0 624481020#0 624481020#1 624481020#2 624481020#4 689912267#0 214812786 116556686#1 -60263960 715835444#1 23508141#1 70205228#0 70205228#1 70205228#2 -70205228#2 -70205228#1 -70205228#0 -23508141#1" />
    </vehicle>
    <vehicle id="bus91" type="bus" depart="118.00" departLane="free">
        <route edges="700440134 214846345#2 214846345#3 253272005 700440131 506015829#1 E0 E2 378479740#1 -700440136 -56163443#3" />
    </vehicle>
    <vehicle id="bus92" type="bus" depart="119.00" departLane="free">
        <route edges="378479743#4" />
    </vehicle>
    <vehicle id="bus93" type="bus" depart="121.00" departLane="free">
        <route edges="23248109#1 -378479743#3 -378479743#2 -378479743#1 -378479743#0 700440131 506015829#1 E0 E2 116556686#1 -60263960 715835444#1" />
    </vehicle>
    <vehicle id="bus94" type="bus" depart="122.00" departLane="free">
        <route edges="-4295817#1 -4295817#0 4295817#0" />
    </vehicle>
    <vehicle id="bus95" type="bus" depart="123.00" departLane="free">
        <route edges="-624481020#1 -624481020#0 624481020#0 624481020#1 624481020#2 624481020#4 689912267#0 214812786 715913363#2 1290085525#0" />
    </vehicle>
    <vehicle id="bus96" type="bus" depart="124.00" departLane="free">
        <route edges="4144040#4 700440148 700440131 506015829#1 E0 E2 378479740#1 -700440136 -56163443#3 -150041594#1 -1290085526#1 -700440129 -700440128 -700440130#1 -700440130#0" />
    </vehicle>
    <vehicle id="bus97" type="bus" depart="125.00" departLane="free">
        <route edges="-715835444#3 -715835444#2 -715835444#1 -4195580#2 -4195580#1 -4195580#0 4144040#1 4144040#2 -484022097 484022097" />
    </vehicle>
    <vehicle id="bus98" type="bus" depart="126.00" departLane="free">
        <route edges="-196656222#1 -196656222#0 -53207957 150041579#0 150041579#2 150041578" />
    </vehicle>
    <vehicle id="bus99" type="bus" depart="127.00" departLane="free">
        <route edges="E2" />
    </vehicle>
    <vehicle id="bus100" type="bus" depart="128.00" departLane="free">
        <route edges="-196656222#1 -196656222#0 -53207957 150041593 196656222#0 196656222#1 196656222#2 700440130#0 700440130#1 700440128 4295817#0 -4295817#0" />
    </vehicle>
    <vehicle id="bus101" type="bus" depart="129.00" departLane="free">
        <route edges="-700440129 700440129 1290085526#0 150041594#0 56163443#1 700440137 700440134 116556686#1 -60263960 715835444#1" />
    </vehicle>
    <vehicle id="bus102" type="bus" depart="130.00" departLane="free">
        <route edges="700440130#1" />
    </vehicle>
    <vehicle id="bus103" type="bus" depart="131.00" departLane="free">
        <route edges="1265069359 1265069358#1 -378479743#6 -378479743#5" />
    </vehicle>
    <vehicle id="bus104" type="bus" depart="132.00" departLane="free">
        <route edges="624481020#4 689912267#0 214812786 116556686#1 -60263960 -4195580#2 -4195580#1 -4195580#0 4195580#0 4195580#1 4195580#2" />
    </vehicle>
    <vehicle id="bus105" type="bus" depart="133.00" departLane="free">
        <route edges="378479753 23248109#1 -378479743#3 -378479743#2 -378479743#1 -378479743#0 700440131 506015829#1 E0 E2 378479740#1 -700440136 -56163443#3 182982119#0 881694399" />
    </vehicle>
    <vehicle id="bus106" type="bus" depart="134.00" departLane="free">
        <route edges="4144040#1 4144040#2 4144040#3 4144040#4 700440148 378479743#0 378479743#1 378479743#2 378479743#3 378479743#4 378479743#5 378479743#6 -1265069358#1 -1265069360#0" />
    </vehicle>
    <vehicle id="bus107" type="bus" depart="135.00" departLane="free">
        <route edges="624481020#0 624481020#1 624481020#2 624481020#4 689912267#0 214812786 378479740#1 -700440136 -56163443#3 -150041594#1 -1290085526#1 -700440129 -700440128 -700440130#1 -700440130#0" />
    </vehicle>
    <vehicle id="bus108" type="bus" depart="136.00" departLane="free">
        <route edges="4144040#3 4144040#4 700440148 700440131 506015829#1 E0 E2 116556686#1 -60263960 715835444#1 715835444#2" />
    </vehicle>