<?xml version='1.0' encoding='utf-8'?>
<routes xmlns:xsi="http://www.w3.org/2001/XMLSchema-instance" xsi:noNamespaceSchemaLocation="http://sumo.dlr.de/xsd/routes_file.xsd">
    <vType id="bicycle" vClass="bicycle" />
    <vehicle id="bike0" type="bicycle" depart="0.00" departLane="free">
        <route edges="4019053#2 -150032770#6 -150032770#5 -150032770#2 -150032770#1" />
    </vehicle>
    <vehicle id="bike1" type="bicycle" depart="1.00" departLane="free">
        <route edges="-700440130#1 -700440130#0 150041699#2 -150041624#2 -150041624#1 -150041624#0 150041594#0 -150041551#3 -4295817#3 -4295817#1" />
    </vehicle>
    <vehicle id="bike2" type="bicycle" depart="2.00" departLane="free">
        <route edges="484022097 4144040#3" />
    </vehicle>
    <vehicle id="bike3" type="bicycle" depart="3.00" departLane="free">
        <route edges="700440134 214812788#2 73372559 -689912267#0 -624481020#4 -28247401 28247401 624481020#4 689912267#0 214812786 378479740#1 -700440136 -56163443#3 -150041594#1 -1290085526#1 -700440129 -700440128 -700440130#1 -700440130#0 -196656222#2 -196656222#1" />
    </vehicle>
    <vehicle id="bike4" type="bicycle" depart="4.00" departLane="free">
        <route edges="150032770#6 103958941#0 -149518804#3 -149518804#2 4019053#2 -150032770#6 -150032770#5 -150032770#2" />
    </vehicle>
    <vehicle id="bike5" type="bicycle" depart="5.00" departLane="free">
        <route edges="-53207957 150041593 196656222#0 196656222#1" />
    </vehicle>
    <vehicle id="bike6" type="bicycle" depart="6.00" departLane="free">
        <route edges="-150032770#2 -150032770#1 -150032770#0 327864903#0 327864903#1 218848625#1 539841923#0 539841923#1 -23015831 4195610#0 4195610#2 484022097 -4144040#2 -4144040#1 4195580#0 4195580#1 285156957 -285156957 -4195580#1 -4195580#0" />
    </vehicle>
    <vehicle id="bike7" type="bicycle" depart="7.00" departLane="free">
        <route edges="4144040#0 4195580#0 4195580#1 4195580#2 715835444#1 -23508141#0 23508142#0 23508142#1 -23508142#1 -23508142#0 23508141#0" />
    </vehicle>
    <vehicle id="bike8" type="bicycle" depart="8.00" departLane="free">
        <route edges="-53207957 150041593 196656222#0 196656222#1 196656222#2 700440130#0 700440130#1 700440128 700440129 1290085526#0 150041594#0 56163443#1 700440137 700440134 214812788#2 73372559 -689912267#0 -624481020#4 -28247401 28247401 624481020#4 689912267#0 214812786 378479740#1" />
    </vehicle>
    <vehicle id="bike9" type="bicycle" depart="9.00" departLane="free">
        <route edges="59591195#2 73372559 -689912267#0 -624481020#4 -28247401 -28247397#1 -28247397#0 -4209642 -1244524929 700440148 378479743#0 378479743#1 378479743#2 378479743#3 378479743#4 378479743#5 378479743#6 -1265069358#1 -1265069360#0" />
    </vehicle>
    <vehicle id="bike10" type="bicycle" depart="10.00" departLane="free">
        <route edges="59591195#2 73372559 -689912267#0 -624481020#4 -28247401 -28247397#1 -28247397#0 -4209642 -1244524929 -4144040#4 -4144040#3 -4144040#2 -4144040#1 4195580#0 4195580#1" />
    </vehicle>
    <vehicle id="bike11" type="bicycle" depart="12.00" departLane="free">
        <route edges="715835444#5 23508224 -23508224 -715835444#5 -715835444#4 -715835444#3 -715835444#2" />
    </vehicle>
    <vehicle id="bike12" type="bicycle" depart="13.00" departLane="free">
        <route edges="-23248109#0 23248109#0 23248109#1 -378479743#3 -378479743#2 -378479743#1 -35098345 35098345 378479743#1 75392301#0 75392301#1 23015831 -539841923#1 539841923#1 -23015831" />
    </vehicle>
    <vehicle id="bike13" type="bicycle" depart="14.00" departLane="free">
        <route edges="700236092#0 700236092#1 700236093 44973978 984768175 1287285290#0 1287285290#1 1287285290#2 539841923#0 539841923#1 -23015831 -75392301#1 -75392301#0 378479743#2" />
    </vehicle>
    <vehicle id="bike14" type="bicycle" depart="15.00" departLane="free">
        <route edges="59591195#2 73372559 -689912267#0 -624481020#4 -28247401 28247401 624481020#4 689912267#0 214812786 378479740#1 -700440136 -56163443#3 -150041551#3 -4295817#3 750168165 -750168165 4295817#3" />
    </vehicle>
    <vehicle id="bike15" type="bicycle" depart="16.00" departLane="free">
        <route edges="23508141#1 70205228#0 694836604 -694836605 694836605 -694836604 -70205228#0 -23508141#1 -715835444#1 -4195580#2 -4195580#1 -4195580#0 4144040#1 4144040#2 -484022097 -4195610#2 -4195610#0 -75392301#1 -75392301#0 75392301#0" />
    </vehicle>
    <vehicle id="bike16" type="bicycle" depart="17.00" departLane="free">
        <route edges="1290085525#1 -4144040#4 -4144040#3 -4144040#2 -4144040#1 4195580#0 4195580#1 4195580#2 715835444#1 23508141#1" />
    </vehicle>
    <vehicle id="bike17" type="bicycle" depart="18.00" departLane="free">
        <route edges="624481020#2 -28247401 -28247397#1 -28247397#0 -4209642 -1244524929 700440148 378479743#0 378479743#1 378479743#2 378479743#3 378479743#4" />
    </vehicle>
    <vehicle id="bike18" type="bicycle" depart="19.00" departLane="free">
        <route edges="700440128 700440129 1290085526#0 150041594#0 56163443#1 700440137 700440134 214812788#2 73372559 -689912267#0 -624481020#4 -28247401 -28247397#1 -28247397#0 -4209642 -1244524929 700440148 378479743#0 378479743#1 378479743#2 378479743#3 378479743#4 378479743#5 378479743#6 -1265069358#1 -256102751#0 257510647#1 254075881#1" />
    </vehicle>
    <vehicle id="bike19" type="bicycle" depart="20.00" departLane="free">
        <route edges="4295817#0 4295817#1 4295817#3 -150041551#1 -150041551#0" />
    </vehicle>
    <vehicle id="bike20" type="bicycle" depart="21.00" departLane="free">
        <route edges="-60263960 715835444#1 715835444#2 715835444#3 150041551#0 150041551#1 -4295817#3 -4295817#1 -4295817#0 -700440128" />
    </vehicle>
    <vehicle id="bike21" type="bicycle" depart="22.00" departLane="free">
        <route edges="-196656222#2 149518798 -149518798 196656222#2 700440130#0 700440130#1 700440128 4295817#0 -23508224 -715835444#5 -715835444#4 -715835444#3 -715835444#2 -715835444#1 -4195580#2 -4195580#1 -4195580#0 4144040#1 4144040#2 -484022097" />
    </vehicle>
    <vehicle id="bike22" type="bicycle" depart="23.00" departLane="free">
        <route edges="-23508141#0 23508142#0 23508142#1 -23508142#1 -23508142#0 23508141#0 23508141#1 70205228#0 70205228#1 -715802321 -29895519#2 -886547965#0 886547965#0 -29895519#1 700440137 700440134 214812788#2 73372559 -689912267#0 -624481020#4" />
    </vehicle>
    <vehicle id="bike23" type="bicycle" depart="24.00" departLane="free">
        <route edges="395456769#1 492925919 254075881#1 449551311 44973978 506013711#1 149518804#2 149518804#3 797259708#1 103958941#0" />
    </vehicle>
    <vehicle id="bike24" type="bicycle" depart="25.00" departLane="free">
        <route edges="1265069359 1265069358#1 -378479743#6 -378479743#5 -378479743#4 -378479743#3 -378479743#2 -378479743#1 -378479743#0 253230759#0 253230759#1 684761787#0 -4144040#4 -4144040#3 -4144040#2 -4144040#1 4195580#0 4195580#1 4195580#2 -4195580#2" />
    </vehicle>
    <vehicle id="bike25" type="bicycle" depart="26.00" departLane="free">
        <route edges="-700440130#0 150041699#2 -150041624#2 -150041624#1 -150041624#0 150041594#0 -150041551#3 -150041551#1 -150041551#0 -715835444#3 -715835444#2 -715835444#1 715835444#1" />
    </vehicle>
    <vehicle id="bike26" type="bicycle" depart="27.00" departLane="free">
        <route edges="4144040#0 4144040#1 4144040#2 -484022097 -4195610#2 -4195610#0 -75392301#1 -75392301#0 378479743#2 378479743#3" />
    </vehicle>
    <vehicle id="bike27" type="bicycle" depart="28.00" departLane="free">
        <route edges="-4144040#3 -4144040#2 -4144040#1 4195580#0 4195580#1 4195580#2 715835444#1 715835444#2 715835444#3 150041551#0 150041551#1 -4295817#3 750168165 -750168165 4295817#3" />
    </vehicle>
    <vehicle id="bike28" type="bicycle" depart="30.00" departLane="free">
        <route edges="E0 E2 378479740#1 -700440136 -56163443#3 -150041594#1 -1290085526#1 -700440129 -700440128 -700440130#1 -700440130#0 -196656222#2 -196656222#1 -196656222#0 -53207957 150041579#0 359458217#2 38115188" />
    </vehicle>
    <vehicle id="bike29" type="bicycle" depart="31.00" departLane="free">
        <route edges="254075881#1 449551311 44973978 984768175 1287285290#0 1287285290#1 1287285290#2 539841923#0 539841923#1 -23015831 4195610#0 4195610#2 484022097 4144040#3 4144040#4" />
    </vehicle>
    <vehicle id="bike30" type="bicycle" depart="32.00" departLane="free">
        <route edges="689912267#0 214812786 378479740#1 700440134 214812788#2 73372559 -689912267#0 -624481020#4 -28247401 -28247397#1 -28247397#0 -4209642 -1244524929 506015829#1" />
    </vehicle>
    <vehicle id="bike31" type="bicycle" depart="33.00" departLane="free">
        <route edges="-60263960 715835444#1 -715835444#1 -4195580#2 -4195580#1 -4195580#0 4144040#1 4144040#2 -484022097 -4195610#2 -4195610#0 23015831 -539841923#1 -539841923#0 -218848625#1 -327864903#1 -327864903#0 150032770#0 150032770#1 150032770#2 -572523427 572523427 -150032770#2" />
    </vehicle>
    <vehicle id="bike32" type="bicycle" depart="34.00" departLane="free">
        <route edges="-715835444#3 -1153038902#4 1185258336#0 1185258336#2 1185258339 -29895520#0 -29895519#2 -886547965#0 886547965#0 -29895519#1 700440137 700440134 214812788#2 73372559 -689912267#0 -624481020#4 -624481020#3 -624481020#1" />
    </vehicle>
    <vehicle id="bike33" type="bicycle" depart="35.00" departLane="free">
        <route edges="-4295817#3 750168165 -750168165 4295817#3 -150041551#1 -150041551#0 -715835444#3 -715835444#2 715835444#2" />
    </vehicle>
    <vehicle id="bike34" type="bicycle" depart="36.00" departLane="free">
        <route edges="700440130#0 700440130#1 700440128 700440129 1290085526#0 150041594#0 56163443#1 29895519#1 886547965#1 -886547965#1 29895519#2 715802321 -70205228#1 -70205228#0" />
    </vehicle>
    <vehicle id="bike35" type="bicycle" depart="38.00" departLane="free">
        <route edges="700440148 253230759#0 253230759#1 684761787#0 506015829#1 E0 E2 378479740#1 -700440136 -56163443#3 -150041594#1 -1290085526#1 -700440129 -700440128 -700440130#1 -700440130#0 -196656222#2 -196656222#1 -196656222#0 -53207957 150041579#0 150041579#2 150041578" />
    </vehicle>
    <vehicle id="bike36" type="bicycle" depart="39.00" departLane="free">
        <route edges="-700440129 700440129 1290085526#0 150041594#0 150041716#0 150041716#1 150041716#2 -56163443#3" />
    </vehicle>
    <vehicle id="bike37" type="bicycle" depart="41.00" departLane="free">
        <route edges="378479743#2 365216934 -365216934 -378479743#2 -378479743#1 -378479743#0 700440131 506015829#1 E0 E2 378479740#1 -700440136 29895519#1 -29895519#1 700440137" />
    </vehicle>
    <vehicle id="bike38" type="bicycle" depart="42.00" departLane="free">
        <route edges="150032770#0 150032770#1 150032770#2 -572523427 572523427 -150032770#2 -150032770#1 -150032770#0 327864903#0 327864903#1 218848625#1 539841923#0 539841923#1 -23015831 4195610#0 4195610#2 484022097 -4144040#2 -4144040#1 4195580#0 4195580#1 4195580#2 715835444#1 715835444#2 715835444#3 150041551#0 150041551#1 -4295817#3 -4295817#1" />
    </vehicle>
    <vehicle id="bike39" type="bicycle" depart="43.00" departLane="free">
        <route edges="E2 378479740#1 -700440136 -56163443#3 -150041594#1 -1290085526#1 -700440129 -700440128 -700440130#1 -700440130#0 -196656222#2 149518798 -149518798 196656222#2" />
    </vehicle>
    <vehicle id="bike40" type="bicycle" depart="44.00" departLane="free">
        <route edges="-23248109#0 23248109#0 23248109#1 -378479743#3 -378479743#2 -378479743#1 -378479743#0 700440131 506015829#1 E0 E2 378479740#1 -700440136 -56163443#3 -150041551#3 -150041551#1 -150041551#0" />
    </vehicle>
    <vehicle id="bike41" type="bicycle" depart="45.00" departLane="free">
        <route edges="-23508141#1 -715835444#1 -4195580#2 -4195580#1 -4195580#0 4144040#1 4144040#2 -484022097 -4195610#2 -4195610#0 -75392301#1 -75392301#0 378479743#2 378479743#3 378479743#4 378479743#5 378479743#6" />
    </vehicle>
    <vehicle id="bike42" type="bicycle" depart="46.00" departLane="free">
        <route edges="56163443#1 29895519#1 886547965#1 -886547965#1 29895519#2 715802321 -70205228#1 -70205228#0 -23508141#1 -715835444#1 -4195580#2 -4195580#1 -4195580#0 4144040#1 4144040#2 -484022097 -4195610#2 -4195610#0 23015831 -539841923#1 -539841923#0 -218848625#1 -327864903#1 -327864903#0 150032770#0 150032770#1" />
    </vehicle>
    <vehicle id="bike43" type="bicycle" depart="47.00" departLane="free">
        <route edges="-182982119#1 -150041551#3 -150041551#1 -150041551#0 -715835444#3 -715835444#2 -715835444#1 60263960 116556688" />
    </vehicle>
    <vehicle id="bike44" type="bicycle" depart="48.00" departLane="free">
        <route edges="E2 59591195#0 59591195#1 59591195#2 73372559 -689912267#0 -624481020#4 -28247401 -28247397#1 -28247397#0 -4209642 -1244524929 700440148 378479743#0 378479743#1 75392301#0 75392301#1 23015831" />
    </vehicle>
    <vehicle id="bike45" type="bicycle" depart="49.00" departLane="free">
        <route edges="73372559 -689912267#0 -624481020#4 -28247401 28247401 624481020#4 689912267#0 214812786 378479740#1 -700440136 -56163443#3 -150041594#1 150041624#0 150041624#1 150041624#2 -150041699#2 700440130#0 700440130#1 700440128" />
    </vehicle>
    <vehicle id="bike46" type="bicycle" depart="50.00" departLane="free">
        <route edges="-150032770#0 327864903#0 327864903#1 218848625#1 539841923#0 539841923#1 -23015831 4195610#0 4195610#2 484022097 -4144040#2 -4144040#1 4195580#0 4195580#1 4195580#2 715835444#1 715835444#2 715835444#3 150041551#0 150041551#1 -4295817#3 -4295817#1 4295817#1" />
    </vehicle>
    <vehicle id="bike47" type="bicycle" depart="51.00" departLane="free">
        <route edges="4195580#1 285156957 -285156957 -4195580#1 -4195580#0 4144040#1 4144040#2 -484022097 -4195610#2 -4195610#0 -75392301#1 -75392301#0 378479743#2 378479743#3 378479743#4 -365216932 365216933 -378479743#4 -23248109#1 23248109#1" />
    </vehicle>
    <vehicle id="bike48" type="bicycle" depart="52.00" departLane="free">
        <route edges="-700440130#0 -196656222#2 -196656222#1 -196656222#0 -53207957 150041579#0 359458217#2 38115188" />
    </vehicle>
    <vehicle id="bike49" type="bicycle" depart="53.00" departLane="free">
        <route edges="-23508224 -715835444#5 -715835444#4 -715835444#3 -715835444#2 -715835444#1 -4195580#2 -4195580#1 -4195580#0 4144040#1 4144040#2 -484022097 -4195610#2 -4195610#0 23015831 -539841923#1 -539841923#0 -218848625#1 -327864903#1 -327864903#0 150032770#0 150032770#1 150032770#2 150032770#5" />
    </vehicle>
    <vehicle id="bike50" type="bicycle" depart="54.00" departLane="free">
        <route edges="150041579#0 359458217#2 38115188 150041593 196656222#0 196656222#1 196656222#2 700440130#0 700440130#1 700440128 4295817#0 -23508224 -715835444#5 -715835444#4 715835444#4" />
    </vehicle>
    <vehicle id="bike51" type="bicycle" depart="55.00" departLane="free">
        <route edges="700440130#0 700440130#1 700440128 700440129 1290085526#0 150041594#0 56163443#1 700440137 700440134 214812788#2 73372559 -689912267#0 -624481020#4 -624481020#3 -624481020#1" />
    </vehicle>
    <vehicle id="bike52" type="bicycle" depart="56.00" departLane="free">
        <route edges="214812786 378479740#1 700440134 214812788#2 73372559 -689912267#0 -624481020#4 -28247401 -28247397#1 -28247397#0 -4209642 -1244524929 -4144040#4 -4144040#3 -4144040#2 -4144040#1" />
    </vehicle>
    <vehicle id="bike53" type="bicycle" depart="57.00" departLane="free">
        <route edges="700440148 253230759#0 253230759#1 684761787#0 506015829#1 E0 E2 378479740#1 -700440136 -56163443#3 -150041594#1 -1290085526#1 -700440129 700440129" />
    </vehicle>
    <vehicle id="bike54" type="bicycle" depart="58.00" departLane="free">
        <route edges="-70205228#2 -715802321 -29895519#2 -886547965#0 886547965#0 -29895519#1 -150041716#2 -150041716#1 -150041716#0 -150041594#1 -1290085526#1 -700440129 -700440128 -700440130#1 -700440130#0 -196656222#2 -196656222#1 -196656222#0 -53207957 150041579#0 359458217#2 38115188" />
    </vehicle>
    <vehicle id="bike55" type="bicycle" depart="59.00" departLane="free">
        <route edges="378479743#6 -1265069358#1 -256102751#0 257510647#1 1265069358#1 -378479743#6 -378479743#5 -378479743#4" />
    </vehicle>
    <vehicle id="bike56" type="bicycle" depart="60.00" departLane="free">
        <route edges="506015829#1 E0 E2 59591195#0 59591195#1 59591195#2 73372559 -689912267#0 -624481020#4 -28247401 -28247397#1 -28247397#0 -4209642 -1244524929 700440148 378479743#0 378479743#1 378479743#2 378479743#3 378479743#4 -365216932 365216933 -378479743#4 -23248109#1 23248109#1" />
    </vehicle>
    <vehicle id="bike57" type="bicycle" depart="61.00" departLane="free">
        <route edges="53207959#1 53207959#3 150041593 196656222#0 196656222#1 196656222#2 700440130#0 700440130#1 700440128 4295817#0 -23508224 -715835444#5 -715835444#4 -715835444#3 -715835444#2 -715835444#1 -4195580#2 -4195580#1 -4195580#0 4144040#1 4144040#2 -484022097 -4195610#2 -4195610#0 23015831" />
    </vehicle>
    <vehicle id="bike58" type="bicycle" depart="62.00" departLane="free">
        <route edges="-1265069358#1 -256102751#0 257510647#1 1265069358#1 -378479743#6 -378479743#5 -378479743#4 -378479743#3 -378479743#2 -378479743#1 -378479743#0 700440131 506015829#1 E0 E2 378479740#1 -700440136 150041716#3 -29895517 -70205228#2" />
    </vehicle>
    <vehicle id="bike59" type="bicycle" depart="63.00" departLane="free">
        <route edges="-150032770#1 -150032770#0 327864903#0 327864903#1 218848625#1 539841923#0 539841923#1 -23015831 4195610#0 4195610#2 484022097 -4144040#2 -4144040#1 4195580#0 4195580#1 4195580#2 715835444#1 23508141#1 70205228#0 70205228#1 70205228#2" />
    </vehicle>
    <vehicle id="bike60" type="bicycle" depart="64.00" departLane="free">
        <route edges="700440130#1 700440128 700440129 1290085526#0 150041594#0 56163443#1 700440137 700440134 214812788#2 73372559 -689912267#0 -624481020#4 -624481020#3 -334960656 334960656 624481020#2" />
    </vehicle>
    <vehicle id="bike61" type="bicycle" depart="65.00" departLane="free">
        <route edges="-715835444#2 715835444#2 715835444#3 150041551#0 150041551#1 150041551#2 -150041551#3" />
    </vehicle>
    <vehicle id="bike62" type="bicycle" depart="66.00" departLane="free">
        <route edges="700440130#1 700440128 4295817#0 4295817#1 4295817#3 -150041551#1 23101679#0 -29895520#3 1153038902#0 1153038902#2 1153038902#4 715835444#3" />
    </vehicle>
    <vehicle id="bike63" type="bicycle" depart="67.00" departLane="free">
        <route edges="-23015831 -75392301#1 -75392301#0 -378479743#1 -378479743#0 700440131 506015829#1 E0 E2 378479740#1 -700440136 -56163443#3 -150041594#1 -1290085526#1 -700440129 -700440128 -700440130#1 -700440130#0 -196656222#2 -196656222#1 -196656222#0 -53207957 150041593" />
    </vehicle>
    <vehicle id="bike64" type="bicycle" depart="69.00" departLane="free">
        <route edges="506015829#1 E0 E2 378479740#1 -700440136 -56163443#3 -150041551#3 -4295817#3 -4295817#1 -23508224" />
    </vehicle>
    <vehicle id="bike65" type="bicycle" depart="70.00" departLane="free">
        <route edges="150041594#0 -150041551#3 -150041551#1 -150041551#0 -715835444#3 -715835444#2 23508141#1" />
    </vehicle>
    <vehicle id="bike66" type="bicycle" depart="71.00" departLane="free">
        <route edges="-700440129 -700440128 -700440130#1 -700440130#0 150041576#1 -150041576#1 700440130#0" />
    </vehicle>
    <vehicle id="bike67" type="bicycle" depart="72.00" departLane="free">
        <route edges="150041551#0 23101679#0 -29895520#3 1153038902#0 1153038902#2 1153038902#4 -715835444#2 -715835444#1 -4195580#2" />
    </vehicle>
    <vehicle id="bike68" type="bicycle" depart="73.00" departLane="free">
        <route edges="23508142#0 23508142#1 -23508142#1 -23508142#0 23508141#0 715835444#2 715835444#3 150041551#0 150041551#1 -4295817#3 750168165 -750168165 4295817#3" />
    </vehicle>
    <vehicle id="bike69" type="bicycle" depart="74.00" departLane="free">
        <route edges="-4295817#1 4295817#1 4295817#3 150041551#2 56163443#1 700440137 -700440136" />
    </vehicle>
    <vehicle id="bike70" type="bicycle" depart="76.00" departLane="free">
        <route edges="150041551#2 56163443#1 700440137 700440134 214812788#2 73372559 -689912267#0 -624481020#4 -28247401 28247401 624481020#4 689912267#0 214812786" />
    </vehicle>
    <vehicle id="bike71" type="bicycle" depart="77.00" departLane="free">
        <route edges="-378479743#0 700440131 506015829#1 E0 E2 378479740#1 -700440136 -56163443#3 -150041551#3 -4295817#3" />
    </vehicle>
    <vehicle id="bike72" type="bicycle" depart="78.00" departLane="free">
        <route edges="103958941#0 -149518804#3 -149518804#2 4019053#2 -150032770#6 -150032770#5 -150032770#2 -150032770#1 -150032770#0 327864903#0 327864903#1 218848625#1 539841923#0 539841923#1 -23015831 -75392301#1 -75392301#0 -378479743#1 -378479743#0 700440131 506015829#1 E0 E2 378479740#1" />
    </vehicle>
    <vehicle id="bike73" type="bicycle" depart="79.00" departLane="free">
        <route edges="-60263960 715835444#1 715835444#2 715835444#3 150041551#0 150041551#1 -4295817#3 -4295817#1" />
    </vehicle>
    <vehicle id="bike74" type="bicycle" depart="80.00" departLane="free">
        <route edges="-196656222#0 13755982 -150041689 -43206316 -150041624#3 -150041624#2 -150041624#1 -150041624#0 150041594#0 56163443#1 700440137 700440134 214812788#2 73372559 -689912267#0 -624481020#4 -28247401 -28247397#1 -28247397#0 -4209642 -1244524929 700440148 378479743#0 378479743#1 378479743#2 378479743#3 378479743#4 378479743#5 378479743#6" />
    </vehicle>
    <vehicle id="bike75" type="bicycle" depart="82.00" departLane="free">
        <route edges="700236093 44973978 984768175 1287285290#0 1287285290#1 1287285290#2 539841923#0 539841923#1 -23015831 -75392301#1 -75392301#0 -378479743#1 -378479743#0 700440131 506015829#1 E0 E2 378479740#1 -700440136 -56163443#3 -150041594#1" />
    </vehicle>
    <vehicle id="bike76" type="bicycle" depart="83.00" departLane="free">
        <route edges="-624481020#1 465884704 -23599727#1 -23599727#0 253230759#1 684761787#0 -4144040#4 -4144040#3 -4144040#2 -4144040#1 4144040#1" />
    </vehicle>
    <vehicle id="bike77" type="bicycle" depart="84.00" departLane="free">
        <route edges="-484022097 -4195610#2 -4195610#0 -75392301#1 -75392301#0 -378479743#1 -378479743#0" />
    </vehicle>
    <vehicle id="bike78" type="bicycle" depart="87.00" departLane="free">
        <route edges="59591195#2 73372559 -689912267#0 -624481020#4 -28247401 -28247397#1 -28247397#0 -4209642 -1244524929 -4144040#4" />
    </vehicle>
    <vehicle id="bike79" type="bicycle" depart="88.00" departLane="free">
        <route edges="-23248109#1 23248109#1 378479743#4 378479743#5 378479743#6 700236092#0 700236092#1 700236093 44973978 506013711#1 4019053#2 -150032770#6 -150032770#5 -572523427 572523427 150032770#5" />
    </vehicle>
    <vehicle id="bike80" type="bicycle" depart="89.00" departLane="free">
        <route edges="150041551#0 150041551#1 -4295817#3 -4295817#1 -4295817#0 -700440128 -700440130#1 -700440130#0 -196656222#2 -196656222#1 -196656222#0 -53207957 150041579#0" />
    </vehicle>
    <vehicle id="bike81" type="bicycle" depart="90.00" departLane="free">
        <route edges="44973978 984768175 1287285290#0 1287285290#1 1287285290#2 539841923#0 539841923#1 -23015831 4195610#0 4195610#2 484022097 -4144040#2 -4144040#1 4144040#1 4144040#2" />
    </vehicle>
    <vehicle id="bike82" type="bicycle" depart="91.00" departLane="free">
        <route edges="881694399 -881694399 -182982119#1 -150041551#3 -150041551#1 -150041551#0 -715835444#3 -715835444#2 -715835444#1 -4195580#2 -4195580#1 -4195580#0 4144040#1 4144040#2 -484022097 -4195610#2 -4195610#0 23015831 -539841923#1 539841923#1 -23015831" />
    </vehicle>
    <vehicle id="bike83" type="bicycle" depart="92.00" departLane="free">
        <route edges="150032770#1 150032770#2 -572523427 572523427 -150032770#2 -150032770#1 -150032770#0 327864903#0 327864903#1 218848625#1 539841923#0 539841923#1 -23015831 4195610#0 4195610#2 484022097 -4144040#2 -4144040#1 4195580#0 4195580#1 4195580#2 715835444#1 715835444#2 -1153038902#4 1153038902#4 -715835444#2" />
    </vehicle>
    <vehicle id="bike84" type="bicycle" depart="93.00" departLane="free">
        <route edges="700440128 700440129 1290085526#0 150041594#0 150041716#0 150041716#1 150041716#2 -56163443#3" />
    </vehicle>
    <vehicle id="bike85" type="bicycle" depart="94.00" departLane="free">
        <route edges="-4195580#2 285156957 -285156957 4195580#2 715835444#1 715835444#2 715835444#3 150041551#0 150041551#1" />
    </vehicle>
    <vehicle id="bike86" type="bicycle" depart="95.00" departLane="free">
        <route edges="150032770#6 103958941#0 -149518804#3 -149518804#2 4019053#2 -150032770#6 -150032770#5 -150032770#2 -150032770#1 -150032770#0 327864903#0 327864903#1 218848625#1 539841923#0 539841923#1 -23015831 -75392301#1 -75392301#0 -378479743#1 -378479743#0 700440131 506015829#1 E0 E2 59591195#0 59591195#1 59591195#2 73372559 -689912267#0 -624481020#4" />
    </vehicle>
    <vehicle id="bike87" type="bicycle" depart="96.00" departLane="free">
        <route edges="-624481020#4 -28247401 28247401 624481020#4 689912267#0 214812786 378479740#1 -700440136 29895519#1 886547965#1 -886547965#1 29895519#2 715802321 -70205228#1 694836604 -694836605 694836605 -694836604 70205228#1" />
    </vehicle>
    <vehicle id="bike88" type="bicycle" depart="97.00" departLane="free">
        <route edges="150041565 700440130#0 700440130#1 700440128" />
    </vehicle>
    <vehicle id="bike89" type="bicycle" depart="98.00" departLane="free">
        <route edges="24509268 700440138 700440139 -378479743#6 -378479743#5 -378479743#4 -378479743#3 -378479743#2 -378479743#1 -378479743#0 700440131 506015829#1 E0 E2 378479740#1 -700440136 -56163443#3 -150041551#3 -150041551#1" />
    </vehicle>
    <vehicle id="bike90" type="bicycle" depart="99.00" departLane="free">
        <route edges="E2 59591195#0 59591195#1 59591195#2 73372559 -689912267#0 -624481020#4 -28247401 28247401 624481020#4" />
    </vehicle>
    <vehicle id="bike91" type="bicycle" depart="100.00" departLane="free">
        <route edges="73372559 -689912267#0 -624481020#4 -28247401 28247401 624481020#4 689912267#0 214812786 378479740#1 -700440136 29895519#1 886547965#1 -886547965#1 29895519#2 715802321 -70205228#1 694836604 -694836605 694836605 -694836604 70205228#1" />
    </vehicle>
    <vehicle id="bike92" type="bicycle" depart="101.00" departLane="free">
        <route edges="700236092#0 700236092#1 700236093 44973978 984768175 1287285290#0 1287285290#1 1287285290#2 539841923#0 539841923#1 -23015831 -75392301#1 -75392301#0 378479743#2 378479743#3 378479743#4 378479743#5 378479743#6 -1265069358#1 -256102751#0 257510647#1 1265069358#1 -378479743#6" />
    </vehicle>
    <vehicle id="bike93" type="bicycle" depart="102.00" departLane="free">
        <route edges="196656222#0 196656222#1 196656222#2 700440130#0 700440130#1 700440128 4295817#0 -4295817#0" />
    </vehicle>
    <vehicle id="bike94" type="bicycle" depart="103.00" departLane="free">
        <route edges="150032770#1 150032770#2 -572523427 572523427 -150032770#2 -150032770#1 -150032770#0 327864903#0 327864903#1 218848625#1 539841923#0 539841923#1 -23015831 -75392301#1 -75392301#0 -378479743#1 -378479743#0 700440131 506015829#1 E0 E2 378479740#1 -700440136 -56163443#3 -150041551#3" />
    </vehicle>
    <vehicle id="bike95" type="bicycle" depart="104.00" departLane="free">
        <route edges="1290085525#1 -684761787#0 684761787#0 506015829#1 E0 E2 378479740#1 -700440136 -56163443#3 182982119#0 881694399" />
    </vehicle>
    <vehicle id="bike96" type="bicycle" depart="106.00" departLane="free">
        <route edges="150041579#0 359458217#2 38115188 150041593 196656222#0 196656222#1 196656222#2 700440130#0 700440130#1 700440128 4295817#0 -23508224 -715835444#5 -715835444#4 -715835444#3 -715835444#2 -715835444#1 -4195580#2 -4195580#1 -4195580#0 4144040#1 4144040#2 -484022097 -4195610#2 -4195610#0 23015831 -539841923#1 -539841923#0 -218848625#1 -327864903#1 -327864903#0 150032770#0 150032770#1" />
    </vehicle>
    <vehicle id="bike97" type="bicycle" depart="107.00" departLane="free">
        <route edges="715835444#5 23508224 -23508224 -715835444#5 -715835444#4 -715835444#3 -715835444#2 -715835444#1 -4195580#2 -4195580#1 -4195580#0 4144040#1 4144040#2 4144040#3 4144040#4 506015829#1 E0 E2" />
    </vehicle>
    <vehicle id="bike98" type="bicycle" depart="108.00" departLane="free">
        <route edges="254075881#1 449551311 44973978 984768175 1287285290#0 1287285290#1 1287285290#2 539841923#0 539841923#1 -23015831 -75392301#1 -75392301#0 -378479743#1 -378479743#0 700440131 506015829#1 E0 E2 378479740#1 -700440136 -56163443#3 -150041594#1 -1290085526#1 -700440129 4295817#0" />
    </vehicle>
    <vehicle id="bike99" type="bicycle" depart="109.00" departLane="free">
        <route edges="-378479743#6 -378479743#5 -378479743#4 -378479743#3 -378479743#2 -378479743#1 -378479743#0 700440131 506015829#1 E0 E2 378479740#1 -700440136 -56163443#3 -150041594#1 -1290085526#1 -700440129 -700440128 -700440130#1 -700440130#0" />
    </vehicle>
    <vehicle id="bike100" type="bicycle" depart="110.00" departLane="free">
        <route edges="73372559 -689912267#0 -624481020#4 -28247401 -28247397#1 -28247397#0 -4209642 -1244524929 700440148 378479743#0 378479743#1 378479743#2 378479743#3 378479743#4 378479743#5 378479743#6 -1265069358#1 -256102751#0 257510647#1 254075881#1" />
    </vehicle>
    <vehicle id="bike101" type="bicycle" depart="111.00" departLane="free">