<?xml version="1.0" encoding="UTF-8"?>

<!-- generated on 2024-10-17 18:37:52.733121 by $Id: ptlines2flows.py v1_3_1+0313-ccb31df3eb jakob.erdmann@dlr.de 2019-09-02 13:26:32 +0200 $ UNKNOWN
<configuration>
    <net-file value="osm.net.xml.gz"/>
    <ptlines-file value="osm_ptlines.xml"/>
    <ptstops-file value="osm_stops.add.xml"/>
    <output-file value="osm_pt.rou.xml"/>
    <min-stops value="0"/>
    <extend-to-fringe value="True"/>
    <random-begin value="True"/>
    <seed value="42"/>
    <ignore-errors value="True"/>
    <vtype-prefix value="pt_"/>
    <verbose value="True"/>
</configuration>
-->

<routes xmlns:xsi="http://www.w3.org/2001/XMLSchema-instance" xsi:noNamespaceSchemaLocation="http://sumo.dlr.de/xsd/routes_file.xsd">
    <vType id="pt_bus" vClass="bus" speedFactor="0.95"/>
    <vType id="pt_tram" vClass="tram" speedFactor="1.0"/>
    <vType id="pt_train" vClass="rail"/>
    <vType id="pt_subway" vClass="subway"/>
    <vType id="pt_light_rail" vClass="rail_urban"/>
    <vType id="pt_monorail" vClass="rail_urban"/>
    <vType id="pt_trolleybus" vClass="bus" speedFactor="0.95"/>
    <vType id="pt_minibus" vClass="bus" speedFactor="0.95"/>
    <vType id="pt_share_taxi" vClass="taxi" speedFactor="0.95"/>
    <vType id="pt_aerialway" vClass="cable_car" length="2.5" width="2" personCapacity="4"/>
    <vType id="pt_ferry" vClass="ship"/>
    <trip id="0_bus_RH:0" type="pt_bus" depart="3.0" departLane="best" from="1185215707" to="-1265069360#0">
        <stop busStop="818872832" duration="30"/>  <!-- Elisabethenstift/Woog -->
        <stop busStop="448433765" duration="30"/>  <!-- Jugendstilbad -->
    </trip>
    <trip id="1_bus_GB:0" type="pt_bus" depart="15.0" departLane="best" from="1185215707" to="-1265069360#0">
        <stop busStop="818872832" duration="30"/>  <!-- Elisabethenstift/Woog -->
        <stop busStop="448433765" duration="30"/>  <!-- Jugendstilbad -->
    </trip>
    <trip id="2_bus_MO1:0" type="pt_bus" depart="15.0" departLane="best" from="1185215707" to="-1265069360#0">
        <stop busStop="818872832" duration="30"/>  <!-- Elisabethenstift/Woog -->
        <stop busStop="448433765" duration="30"/>  <!-- Jugendstilbad -->
    </trip>
    <trip id="3_bus_672:0" type="pt_bus" depart="17.0" departLane="best" from="150041578" to="-1265069360#0">
        <stop busStop="448433719" duration="30"/>  <!-- Ostbahnhof -->
        <stop busStop="818872832" duration="30"/>  <!-- Elisabethenstift/Woog -->
        <stop busStop="448433765" duration="30"/>  <!-- Jugendstilbad -->
    </trip>
    <trip id="4_bus_672:1" type="pt_bus" depart="27.0" departLane="best" from="150041578" to="-1265069360#0">
        <stop busStop="448433719" duration="30"/>  <!-- Ostbahnhof -->
        <stop busStop="818872832" duration="30"/>  <!-- Elisabethenstift/Woog -->
        <stop busStop="448433765" duration="30"/>  <!-- Jugendstilbad -->
    </trip>
    <trip id="5_bus_672:2" type="pt_bus" depart="47.0" departLane="best" from="1265069359" to="150041579#2">
        <stop busStop="763225186" duration="30"/>  <!-- Schloss -->
        <stop busStop="-243169788" duration="30"/>  <!-- Jugendstilbad -->
        <stop busStop="-25599407" duration="30"/>  <!-- Elisabethenstift/Woog -->
        <stop busStop="-15624443" duration="30"/>  <!-- Ostbahnhof -->
    </trip>
    <trip id="6_bus_672:3" type="pt_bus" depart="52.0" departLane="best" from="150041578" to="-1265069360#0">
        <stop busStop="448433719" duration="30"/>  <!-- Ostbahnhof -->
        <stop busStop="818872832" duration="30"/>  <!-- Elisabethenstift/Woog -->
        <stop busStop="448433765" duration="30"/>  <!-- Jugendstilbad -->
    </trip>
    <trip id="7_bus_673:0" type="pt_bus" depart="55.0" departLane="best" from="1265069359" to="150041579#2">
        <stop busStop="763225186" duration="30"/>  <!-- Schloss -->
        <stop busStop="-243169788" duration="30"/>  <!-- Jugendstilbad -->
        <stop busStop="-25599407" duration="30"/>  <!-- Elisabethenstift/Woog -->
        <stop busStop="-15624443" duration="30"/>  <!-- Ostbahnhof -->
    </trip>
    <trip id="8_bus_673:1" type="pt_bus" depart="58.0" departLane="best" from="150041578" to="-1265069360#0">
        <stop busStop="448433719" duration="30"/>  <!-- Ostbahnhof -->
        <stop busStop="818872832" duration="30"/>  <!-- Elisabethenstift/Woog -->
    </trip>
    <trip id="9_bus_673:2" type="pt_bus" depart="60.0" departLane="best" from="1265069359" to="150041579#2">
        <stop busStop="763225186" duration="30"/>  <!-- Schloss -->
        <stop busStop="-243169788" duration="30"/>  <!-- Jugendstilbad -->
        <stop busStop="-25599407" duration="30"/>  <!-- Elisabethenstift/Woog -->
        <stop busStop="-15624443" duration="30"/>  <!-- Ostbahnhof -->
    </trip>
    <trip id="10_bus_673:3" type="pt_bus" depart="93.0" departLane="best" from="1265069359" to="150041579#2">
        <stop busStop="763225186" duration="30"/>  <!-- Schloss -->
        <stop busStop="-243169788" duration="30"/>  <!-- Jugendstilbad -->
        <stop busStop="-25599407" duration="30"/>  <!-- Elisabethenstift/Woog -->
        <stop busStop="-15624443" duration="30"/>  <!-- Ostbahnhof -->
    </trip>
    <trip id="11_bus_F:0" type="pt_bus" depart="119.0" departLane="best" from="51873805" to="-1265069360#0">
        <stop busStop="2385375149" duration="30"/>  <!-- Pützerstraße/Mathildenhöhe (Bushalt Richtung Süd) -->
    </trip>
    <trip id="12_bus_F:1" type="pt_bus" depart="131.0" departLane="best" from="1265069359" to="-51873805">
        <stop busStop="763225186" duration="30"/>  <!-- Schloss -->
        <stop busStop="-2385375149" duration="30"/>  <!-- Pützerstraße/Mathildenhöhe (Bushalt Richtung Süd) -->
    </trip>
    <trip id="13_bus_671:0" type="pt_bus" depart="132.0" departLane="best" from="150041578" to="-1265069360#0">
        <stop busStop="448433719" duration="30"/>  <!-- Ostbahnhof -->
        <stop busStop="818872832" duration="30"/>  <!-- Elisabethenstift/Woog -->
        <stop busStop="448433765" duration="30"/>  <!-- Jugendstilbad -->
    </trip>
    <trip id="14_bus_671:1" type="pt_bus" depart="133.0" departLane="best" from="150041578" to="-1265069360#0">
        <stop busStop="448433719" duration="30"/>  <!-- Ostbahnhof -->
        <stop busStop="818872832" duration="30"/>  <!-- Elisabethenstift/Woog -->
        <stop busStop="448433765" duration="30"/>  <!-- Jugendstilbad -->
    </trip>
    <trip id="15_bus_WE1:0" type="pt_bus" depart="136.0" departLane="best" from="1265069359" to="1265069359">
        <stop busStop="763225186" duration="30"/>  <!-- Schloss -->
    </trip>
    <trip id="16_bus_WE2:0" type="pt_bus" depart="139.0" departLane="best" from="1265069359" to="1265069359">
        <stop busStop="763225186" duration="30"/>  <!-- Schloss -->
    </trip>
    <trip id="17_bus_X69:0" type="pt_bus" depart="165.0" departLane="best" from="150041578" to="35574708#1">
        <stop busStop="448433719" duration="30"/>  <!-- Ostbahnhof -->
        <stop busStop="448433765" duration="30"/>  <!-- Jugendstilbad -->
    </trip>
    <trip id="18_bus_X69:1" type="pt_bus" depart="166.0" departLane="best" from="1265069359" to="150041579#2">
        <stop busStop="763225186" duration="30"/>  <!-- Schloss -->
        <stop busStop="-243169788" duration="30"/>  <!-- Jugendstilbad -->
        <stop busStop="-15624443" duration="30"/>  <!-- Ostbahnhof -->
    </trip>
    <trip id="19_bus_671:2" type="pt_bus" depart="173.0" departLane="best" from="1265069359" to="150041579#2">
        <stop busStop="763225186" duration="30"/>  <!-- Schloss -->
        <stop busStop="-243169788" duration="30"/>  <!-- Jugendstilbad -->
        <stop busStop="-25599407" duration="30"/>  <!-- Elisabethenstift/Woog -->
        <stop busStop="-15624443" duration="30"/>  <!-- Ostbahnhof -->
    </trip>
    <trip id="20_bus_MO1:1" type="pt_bus" depart="201.0" departLane="best" from="1265069359" to="-150041565">
        <stop busStop="763225186" duration="30"/>  <!-- Schloss -->
        <stop busStop="-243169788" duration="30"/>  <!-- Jugendstilbad -->
        <stop busStop="-25599407" duration="30"/>  <!-- Elisabethenstift/Woog -->
    </trip>
    <trip id="21_bus_K:0" type="pt_bus" depart="204.0" departLane="best" from="1265069359" to="1265069359">
        <stop busStop="763225186" duration="30"/>  <!-- Schloss -->
    </trip>
    <trip id="22_bus_H:0" type="pt_bus" depart="227.0" departLane="best" from="1265069359" to="1265069359">
        <stop busStop="763225186" duration="30"/>  <!-- Schloss -->
    </trip>
    <trip id="23_bus_L:0" type="pt_bus" depart="253.0" departLane="best" from="1265069359" to="73372559">
        <stop busStop="763225186" duration="30"/>  <!-- Schloss -->
    </trip>
    <trip id="24_bus_X74:0" type="pt_bus" depart="303.0" departLane="best" from="1265069359" to="150041579#2">
        <stop busStop="763225186" duration="30"/>  <!-- Schloss -->
        <stop busStop="-243169788" duration="30"/>  <!-- Jugendstilbad -->
        <stop busStop="-15624443" duration="30"/>  <!-- Ostbahnhof -->
    </trip>
    <trip id="25_bus_673:4" type="pt_bus" depart="321.0" departLane="best" from="150041578" to="-1265069360#0">
        <stop busStop="448433719" duration="30"/>  <!-- Ostbahnhof -->
        <stop busStop="818872832" duration="30"/>  <!-- Elisabethenstift/Woog -->
        <stop busStop="448433765" duration="30"/>  <!-- Jugendstilbad -->
    </trip>
    <trip id="26_bus_RH:1" type="pt_bus" depart="326.0" departLane="best" from="1265069359" to="-150041565">
        <stop busStop="763225186" duration="30"/>  <!-- Schloss -->
        <stop busStop="-243169788" duration="30"/>  <!-- Jugendstilbad -->
        <stop busStop="-25599407" duration="30"/>  <!-- Elisabethenstift/Woog -->
    </trip>
    <trip id="27_bus_X71:0" type="pt_bus" depart="331.0" departLane="best" from="1265069359" to="150041579#2">
        <stop busStop="763225186" duration="30"/>  <!-- Schloss -->
        <stop busStop="-243169788" duration="30"/>  <!-- Jugendstilbad -->
        <stop busStop="-15624443" duration="30"/>  <!-- Ostbahnhof -->
    </trip>
    <trip id="28_bus_GB:1" type="pt_bus" depart="346.0" departLane="best" from="1265069359" to="-150041565">
        <stop busStop="763225186" duration="30"/>  <!-- Schloss -->
        <stop busStop="-243169788" duration="30"/>  <!-- Jugendstilbad -->
        <stop busStop="-25599407" duration="30"/>  <!-- Elisabethenstift/Woog -->
    </trip>
    <trip id="29_bus_X78:0" type="pt_bus" depart="353.0" departLane="best" from="1265069359" to="150041579#2">
        <stop busStop="763225186" duration="30"/>  <!-- Schloss -->
        <stop busStop="-243169788" duration="30"/>  <!-- Jugendstilbad -->
        <stop busStop="-25599407" duration="30"/>  <!-- Elisabethenstift/Woog -->
        <stop busStop="-15624443" duration="30"/>  <!-- Ostbahnhof -->
    </trip>
    <trip id="30_bus_X78:1" type="pt_bus" depart="362.0" departLane="best" from="150041578" to="-1265069360#0">
        <stop busStop="448433719" duration="30"/>  <!-- Ostbahnhof -->
        <stop busStop="818872832" duration="30"/>  <!-- Elisabethenstift/Woog -->
        <stop busStop="448433765" duration="30"/>  <!-- Jugendstilbad -->
    </trip>
    <trip id="31_bus_X78:2" type="pt_bus" depart="371.0" departLane="best" from="1265069359" to="150041579#2">
        <stop busStop="763225186" duration="30"/>  <!-- Schloss -->
        <stop busStop="-243169788" duration="30"/>  <!-- Jugendstilbad -->
        <stop busStop="-25599407" duration="30"/>  <!-- Elisabethenstift/Woog -->
        <stop busStop="-15624443" duration="30"/>  <!-- Ostbahnhof -->
    </trip>
    <trip id="32_bus_X78:3" type="pt_bus" depart="381.0" departLane="best" from="150041578" to="-1265069360#0">
        <stop busStop="448433719" duration="30"/>  <!-- Ostbahnhof -->
        <stop busStop="448433765" duration="30"/>  <!-- Jugendstilbad -->
    </trip>
    <trip id="33_bus_X78:4" type="pt_bus" depart="383.0" departLane="best" from="1265069359" to="150041579#2">
        <stop busStop="763225186" duration="30"/>  <!-- Schloss -->
        <stop busStop="-243169788" duration="30"/>  <!-- Jugendstilbad -->
        <stop busStop="-15624443" duration="30"/>  <!-- Ostbahnhof -->
    </trip>
    <trip id="34_bus_X78:5" type="pt_bus" depart="389.0" departLane="best" from="150041578" to="-1265069360#0">
        <stop busStop="448433719" duration="30"/>  <!-- Ostbahnhof -->
        <stop busStop="448433765" duration="30"/>  <!-- Jugendstilbad -->
    </trip>
    <trip id="35_bus_X78:6" type="pt_bus" depart="406.0" departLane="best" from="1265069359" to="150041579#2">
        <stop busStop="763225186" duration="30"/>  <!-- Schloss -->
        <stop busStop="-243169788" duration="30"/>  <!-- Jugendstilbad -->
        <stop busStop="-15624443" duration="30"/>  <!-- Ostbahnhof -->
    </trip>
    <trip id="36_bus_X78:7" type="pt_bus" depart="418.0" departLane="best" from="150041578" to="-1265069360#0">
        <stop busStop="448433719" duration="30"/>  <!-- Ostbahnhof -->
        <stop busStop="448433765" duration="30"/>  <!-- Jugendstilbad -->
    </trip>
    <trip id="37_bus_671:3" type="pt_bus" depart="422.0" departLane="best" from="150041578" to="-1265069360#0">
        <stop busStop="448433719" duration="30"/>  <!-- Ostbahnhof -->
        <stop busStop="818872832" duration="30"/>  <!-- Elisabethenstift/Woog -->
        <stop busStop="448433765" duration="30"/>  <!-- Jugendstilbad -->
    </trip>
    <trip id="38_bus_671:4" type="pt_bus" depart="437.0" departLane="best" from="1265069359" to="150041579#2">
        <stop busStop="763225186" duration="30"/>  <!-- Schloss -->
        <stop busStop="-243169788" duration="30"/>  <!-- Jugendstilbad -->
        <stop busStop="-25599407" duration="30"/>  <!-- Elisabethenstift/Woog -->
        <stop busStop="-15624443" duration="30"/>  <!-- Ostbahnhof -->
    </trip>
    <trip id="39_bus_671:5" type="pt_bus" depart="441.0" departLane="best" from="1265069359" to="150041579#2">
        <stop busStop="763225186" duration="30"/>  <!-- Schloss -->
        <stop busStop="-243169788" duration="30"/>  <!-- Jugendstilbad -->
        <stop busStop="-25599407" duration="30"/>  <!-- Elisabethenstift/Woog -->
        <stop busStop="-15624443" duration="30"/>  <!-- Ostbahnhof -->
    </trip>
    <trip id="40_bus_FM:0" type="pt_bus" depart="483.0" departLane="best" from="51873805" to="-1265069360#0">
        <stop busStop="2385375149" duration="30"/>  <!-- Pützerstraße/Mathildenhöhe (Bushalt Richtung Süd) -->
    </trip>
    <trip id="41_bus_FM:1" type="pt_bus" depart="484.0" departLane="best" from="1265069359" to="-51873805">
        <stop busStop="763225186" duration="30"/>  <!-- Schloss -->
    </trip>
    <trip id="42_bus_K:1" type="pt_bus" depart="485.0" departLane="best" from="1265069359" to="1265069359">
        <stop busStop="763225186" duration="30"/>  <!-- Schloss -->
    </trip>
    <trip id="43_bus_678:0" type="pt_bus" depart="497.0" departLane="best" from="1265069359" to="73372559">
        <stop busStop="763225186" duration="30"/>  <!-- Schloss -->
    </trip>
    <trip id="44_bus_672:4" type="pt_bus" depart="508.0" departLane="best" from="1265069359" to="150041579#2">
        <stop busStop="763225186" duration="30"/>  <!-- Schloss -->
        <stop busStop="-243169788" duration="30"/>  <!-- Jugendstilbad -->
        <stop busStop="-25599407" duration="30"/>  <!-- Elisabethenstift/Woog -->
        <stop busStop="-15624443" duration="30"/>  <!-- Ostbahnhof -->
    </trip>
    <trip id="45_bus_NHX:0" type="pt_bus" depart="517.0" departLane="best" from="150041578" to="-1265069360#0">
        <stop busStop="448433719" duration="30"/>  <!-- Ostbahnhof -->
        <stop busStop="818872832" duration="30"/>  <!-- Elisabethenstift/Woog -->
        <stop busStop="448433765" duration="30"/>  <!-- Jugendstilbad -->
    </trip>
    <trip id="46_bus_NHX:1" type="pt_bus" depart="535.0" departLane="best" from="1265069359" to="150041579#2">
        <stop busStop="763225186" duration="30"/>  <!-- Schloss -->
        <stop busStop="-243169788" duration="30"/>  <!-- Jugendstilbad -->
        <stop busStop="-25599407" duration="30"/>  <!-- Elisabethenstift/Woog -->
        <stop busStop="-15624443" duration="30"/>  <!-- Ostbahnhof -->
    </trip>
    <trip id="47_bus_X71:1" type="pt_bus" depart="574.0" departLane="best" from="150041578" to="-1265069360#0">
        <stop busStop="448433719" duration="30"/>  <!-- Ostbahnhof -->
        <stop busStop="448433765" duration="30"/>  <!-- Jugendstilbad -->
    </trip>
    <trip id="48_bus_X74:1" type="pt_bus" depart="583.0" departLane="best" from="150041578" to="-1265069360#0">
        <stop busStop="448433719" duration="30"/>  <!-- Ostbahnhof -->
        <stop busStop="448433765" duration="30"/>  <!-- Jugendstilbad -->
    </trip>
</routes>
