<?xml version="1.0" encoding="UTF-8"?>

<!-- generated on 2024-09-22 21:40:28.592089 by osmWebWizard.py UNKNOWN
<configuration>
    <net-file value="/opt/homebrew/Cellar/sumo/1.20.0/share/sumo/tools/2024-09-22-21-40-21/osm.net.xml.gz"/>
    <output-trip-file value="/opt/homebrew/Cellar/sumo/1.20.0/share/sumo/tools/2024-09-22-21-40-21/osm.passenger.trips.xml"/>
    <route-file value="/opt/homebrew/Cellar/sumo/1.20.0/share/sumo/tools/2024-09-22-21-40-21/osm.passenger.rou.xml"/>
    <prefix value="veh"/>
    <trip-attributes value="departLane=&quot;best&quot;"/>
    <fringe-start-attributes value="departSpeed=&quot;max&quot;"/>
    <vehicle-class value="passenger"/>
    <lanes value="True"/>
    <fringe-factor value="5"/>
    <allow-fringe.min-length value="1000.0"/>
    <via-edge-types value="highway.motorway,highway.motorway_link,highway.trunk_link,highway.primary_link,highway.secondary_link,highway.tertiary_link"/>
    <min-distance value="300.0"/>
    <min-distance.fringe value="10.0"/>
    <remove-loops value="True"/>
    <validate value="True"/>
    <insertion-density value="12.0"/>
</configuration>
-->

<!-- generated on 2024-09-22 21:40:28 by Eclipse SUMO duarouter Version 1.20.0
<configuration xmlns:xsi="http://www.w3.org/2001/XMLSchema-instance" xsi:noNamespaceSchemaLocation="http://sumo.dlr.de/xsd/duarouterConfiguration.xsd">

    <input>
        <net-file value="/opt/homebrew/Cellar/sumo/1.20.0/share/sumo/tools/2024-09-22-21-40-21/osm.net.xml.gz"/>
        <route-files value="/opt/homebrew/Cellar/sumo/1.20.0/share/sumo/tools/2024-09-22-21-40-21/osm.passenger.trips.xml"/>
    </input>

    <output>
        <output-file value="/opt/homebrew/Cellar/sumo/1.20.0/share/sumo/tools/2024-09-22-21-40-21/osm.passenger.trips.xml.tmp"/>
        <alternatives-output value="NUL"/>
        <write-trips value="true"/>
    </output>

    <processing>
        <remove-loops value="true"/>
    </processing>

    <time>
        <begin value="0.0"/>
        <end value="3600.0"/>
    </time>

    <report>
        <no-warnings value="true"/>
        <ignore-errors value="true"/>
        <no-step-log value="true"/>
    </report>

</configuration>
-->

<routes xmlns:xsi="http://www.w3.org/2001/XMLSchema-instance" xsi:noNamespaceSchemaLocation="http://sumo.dlr.de/xsd/routes_file.xsd">
    <vType id="veh_passenger" vClass="passenger"/>
    <trip id="veh1" type="veh_passenger" depart="28.80" departLane="best" from="-4610480#1" to="-330840125#1"/>
    <trip id="veh4" type="veh_passenger" depart="115.21" departLane="best" from="-339201177#4" to="1217865061#0"/>
    <trip id="veh5" type="veh_passenger" depart="144.02" departLane="best" departSpeed="max" from="1105574291#1" to="24243107#1"/>
    <trip id="veh7" type="veh_passenger" depart="201.62" departLane="best" from="43231842#0" to="-31313667#1"/>
    <trip id="veh8" type="veh_passenger" depart="230.43" departLane="best" from="1077923225#0" to="168940071#3"/>
    <trip id="veh10" type="veh_passenger" depart="288.03" departLane="best" departSpeed="max" from="1105574291#0" to="168937986"/>
    <trip id="veh14" type="veh_passenger" depart="403.25" departLane="best" from="-1198409426#2" to="339201177#2"/>
    <trip id="veh15" type="veh_passenger" depart="432.05" departLane="best" from="-1305423286#0" to="4610524#0"/>
    <trip id="veh16" type="veh_passenger" depart="460.85" departLane="best" from="195397561#1" to="1111982484#1"/>
    <trip id="veh18" type="veh_passenger" depart="518.46" departLane="best" from="-23121445#2" to="1114798610#1"/>
    <trip id="veh19" type="veh_passenger" depart="547.26" departLane="best" departSpeed="max" from="83517336#0" to="24243101"/>
    <trip id="veh22" type="veh_passenger" depart="633.67" departLane="best" from="43231842#0" to="1114798610#0"/>
    <trip id="veh23" type="veh_passenger" depart="662.48" departLane="best" from="492340367#0" to="-4610480#1"/>
    <trip id="veh25" type="veh_passenger" depart="720.08" departLane="best" from="23121445#4" to="1119837993"/>
    <trip id="veh26" type="veh_passenger" depart="748.89" departLane="best" from="507023458#0" to="1170522567#0"/>
    <trip id="veh27" type="veh_passenger" depart="777.69" departLane="best" departSpeed="max" from="-4610472#2" to="43231842#0"/>
    <trip id="veh28" type="veh_passenger" depart="806.49" departLane="best" from="153698394#3" to="-4610375#0"/>
    <trip id="veh29" type="veh_passenger" depart="835.30" departLane="best" from="-168940071#3" to="54048862#2"/>
    <trip id="veh32" type="veh_passenger" depart="921.71" departLane="best" from="28251222#1" to="1116360926#1"/>
    <trip id="veh33" type="veh_passenger" depart="950.51" departLane="best" departSpeed="max" from="83517336#0" to="137630045#1"/>
    <trip id="veh34" type="veh_passenger" depart="979.31" departLane="best" from="1261128304" to="153698394#3"/>
    <trip id="veh35" type="veh_passenger" depart="1008.12" departLane="best" from="-137630045#1" to="1126244314#1"/>
    <trip id="veh36" type="veh_passenger" depart="1036.92" departLane="best" from="4611707#1" to="-4610375#0"/>
    <trip id="veh37" type="veh_passenger" depart="1065.72" departLane="best" from="507023458#0" to="4611707#1"/>
    <trip id="veh38" type="veh_passenger" depart="1094.53" departLane="best" departSpeed="max" from="-4611693#2" to="24243101"/>
    <trip id="veh39" type="veh_passenger" depart="1123.33" departLane="best" from="195397541#0" to="168940071#2"/>
    <trip id="veh40" type="veh_passenger" depart="1152.13" departLane="best" departSpeed="max" from="339201219" to="153698394#4"/>
    <trip id="veh41" type="veh_passenger" depart="1180.94" departLane="best" from="340498976#3" to="137630045#1"/>
    <trip id="veh42" type="veh_passenger" depart="1209.74" departLane="best" from="-1101961674#1" to="1077923225#0"/>
    <trip id="veh44" type="veh_passenger" depart="1267.35" departLane="best" from="-4611694#1" to="114667396#2"/>
    <trip id="veh49" type="veh_passenger" depart="1411.36" departLane="best" from="1149417521#1" to="-15977422#1"/>
    <trip id="veh50" type="veh_passenger" depart="1440.17" departLane="best" departSpeed="max" from="-4610472#2" to="4611707#1"/>
    <trip id="veh52" type="veh_passenger" depart="1497.77" departLane="best" from="-330840125#0" to="-51167934#0"/>
    <trip id="veh53" type="veh_passenger" depart="1526.58" departLane="best" departSpeed="max" from="83517336#0" to="251884680#0"/>
    <trip id="veh55" type="veh_passenger" depart="1584.18" departLane="best" from="-168940071#1" to="-330840125#1"/>
    <trip id="veh57" type="veh_passenger" depart="1641.79" departLane="best" from="43231842#1" to="-330840125#0"/>
    <trip id="veh58" type="veh_passenger" depart="1670.59" departLane="best" from="-43231842#0" to="541763974"/>
    <trip id="veh59" type="veh_passenger" depart="1699.40" departLane="best" from="-437325047#1" to="28016312"/>
    <trip id="veh60" type="veh_passenger" depart="1728.20" departLane="best" from="-339201177#3" to="1305423286#1"/>
    <trip id="veh61" type="veh_passenger" depart="1757.00" departLane="best" from="541763974" to="169195795#1"/>
    <trip id="veh63" type="veh_passenger" depart="1814.61" departLane="best" from="43231842#1" to="-23121445#5"/>
    <trip id="veh69" type="veh_passenger" depart="1987.43" departLane="best" from="1126237668#1" to="4611699#0"/>
    <trip id="veh70" type="veh_passenger" depart="2016.23" departLane="best" from="-1305423286#2" to="-114667396#0"/>
    <trip id="veh71" type="veh_passenger" depart="2045.04" departLane="best" from="83517336#4" to="4610524#1"/>
    <trip id="veh75" type="veh_passenger" depart="2160.25" departLane="best" from="66071379#1" to="882389494#1"/>
    <trip id="veh76" type="veh_passenger" depart="2189.05" departLane="best" from="137630045#1" to="339201177#4"/>
    <trip id="veh77" type="veh_passenger" depart="2217.86" departLane="best" departSpeed="max" from="-202156991" to="-492340367#0"/>
    <trip id="veh78" type="veh_passenger" depart="2246.66" departLane="best" from="68647306#5" to="195397541#3"/>
    <trip id="veh80" type="veh_passenger" depart="2304.27" departLane="best" from="114667396#3" to="195397541#5"/>
    <trip id="veh82" type="veh_passenger" depart="2361.87" departLane="best" departSpeed="max" from="461526152" to="43231842#0"/>
    <trip id="veh83" type="veh_passenger" depart="2390.68" departLane="best" from="169195795#1" to="-23121445#4"/>
    <trip id="veh86" type="veh_passenger" depart="2477.09" departLane="best" from="-330840125#1" to="339201177#3"/>
    <trip id="veh88" type="veh_passenger" depart="2534.69" departLane="best" from="492340367#0" to="35578557#2"/>
    <trip id="veh89" type="veh_passenger" depart="2563.50" departLane="best" from="-1198409426#0" to="1170522567#0"/>
    <trip id="veh90" type="veh_passenger" depart="2592.30" departLane="best" from="-1198409426#0" to="-28251222#0"/>
    <trip id="veh92" type="veh_passenger" depart="2649.91" departLane="best" departSpeed="max" from="461526152" to="-492340367#1"/>
    <trip id="veh93" type="veh_passenger" depart="2678.71" departLane="best" departSpeed="max" from="1105574291#0" to="-195397539"/>
    <trip id="veh94" type="veh_passenger" depart="2707.51" departLane="best" from="4610476#2" to="-330840125#0"/>
    <trip id="veh95" type="veh_passenger" depart="2736.32" departLane="best" from="195397541#2" to="882389494#1"/>
    <trip id="veh96" type="veh_passenger" depart="2765.12" departLane="best" from="448810728" to="-492340367#1"/>
    <trip id="veh98" type="veh_passenger" depart="2822.73" departLane="best" departSpeed="max" from="-4610472#2" to="202156991"/>
    <trip id="veh99" type="veh_passenger" depart="2851.53" departLane="best" from="31313667#1" to="-28251222#0"/>
    <trip id="veh100" type="veh_passenger" depart="2880.33" departLane="best" from="195397561#1" to="-4610375#0"/>
    <trip id="veh101" type="veh_passenger" depart="2909.14" departLane="best" from="1170522567#0" to="541763974"/>
    <trip id="veh105" type="veh_passenger" depart="3024.35" departLane="best" from="195397561#3" to="-4610375#0"/>
    <trip id="veh107" type="veh_passenger" depart="3081.96" departLane="best" departSpeed="max" from="461526152" to="15971197"/>
    <trip id="veh109" type="veh_passenger" depart="3139.56" departLane="best" from="340498982#0" to="4611699#0"/>
    <trip id="veh110" type="veh_passenger" depart="3168.37" departLane="best" departSpeed="max" from="461526152" to="-28251222#0"/>
    <trip id="veh112" type="veh_passenger" depart="3225.97" departLane="best" from="340498976#3" to="-507023458#0"/>
    <trip id="veh113" type="veh_passenger" depart="3254.78" departLane="best" from="1119837507#0" to="23121445#4"/>
    <trip id="veh115" type="veh_passenger" depart="3312.38" departLane="best" from="4611699#0" to="882389494#1"/>
    <trip id="veh116" type="veh_passenger" depart="3341.19" departLane="best" from="43231842#3" to="-492340367#3"/>
    <trip id="veh117" type="veh_passenger" depart="3369.99" departLane="best" departSpeed="max" from="1105574291#1" to="340498976#4"/>
    <trip id="veh119" type="veh_passenger" depart="3427.60" departLane="best" from="35578576#3" to="4611699#0"/>
    <trip id="veh120" type="veh_passenger" depart="3456.40" departLane="best" from="43231842#3" to="1151064395#1"/>
    <trip id="veh121" type="veh_passenger" depart="3485.20" departLane="best" from="340498976#7" to="1198409426#2"/>
    <trip id="veh122" type="veh_passenger" depart="3514.01" departLane="best" from="1126465703#1" to="-507023458#0"/>
    <trip id="veh123" type="veh_passenger" depart="3542.81" departLane="best" from="340498982#0" to="-339201177#1"/>
    <trip id="veh124" type="veh_passenger" depart="3571.61" departLane="best" departSpeed="max" from="1105574291#1" to="24243101"/>
</routes>
