<?xml version="1.0" encoding="UTF-8"?>

<!-- generated on 2024-11-05 11:27:36.989364 by randomTrips.py UNKNOWN
<configuration>
    <net-file value="/opt/homebrew/opt/sumo/share/sumo/tools/2024-10-08-17-29-51/241104/241104.net.xml"/>
    <additional-files value="/opt/homebrew/opt/sumo/share/sumo/tools/2024-10-08-17-29-51/241104/bus.rou.xml"/>
    <route-file value="241104_random_route_pedestrian.rou.xml"/>
    <pedestrians value="True"/>
    <persontrips value="True"/>
    <prefix value="pedestrian"/>
    <verbose value="True"/>
    <insertion-density value="70.0"/>
    <random-depart value="True"/>
</configuration>
-->

<!-- generated on 2024-11-05 11:27:36 by Eclipse SUMO duarouter Version 1.20.0
<configuration xmlns:xsi="http://www.w3.org/2001/XMLSchema-instance" xsi:noNamespaceSchemaLocation="http://sumo.dlr.de/xsd/duarouterConfiguration.xsd">

    <input>
        <net-file value="/opt/homebrew/opt/sumo/share/sumo/tools/2024-10-08-17-29-51/241104/241104.net.xml"/>
        <additional-files value="/opt/homebrew/opt/sumo/share/sumo/tools/2024-10-08-17-29-51/241104/bus.rou.xml"/>
        <route-files value="trips.trips.xml"/>
    </input>

    <output>
        <output-file value="241104_random_route_pedestrian.rou.xml"/>
        <alternatives-output value="NUL"/>
    </output>

    <time>
        <begin value="0.0"/>
        <end value="3600.0"/>
    </time>

    <report>
        <verbose value="true"/>
        <ignore-errors value="true"/>
        <no-step-log value="true"/>
    </report>

</configuration>
-->

<routes xmlns:xsi="http://www.w3.org/2001/XMLSchema-instance" xsi:noNamespaceSchemaLocation="http://sumo.dlr.de/xsd/routes_file.xsd"/>
