<?xml version="1.0" encoding="UTF-8"?>

<!-- generated on 2024-11-05 11:27:36.822908 by randomTrips.py UNKNOWN
<configuration>
    <net-file value="/opt/homebrew/opt/sumo/share/sumo/tools/2024-10-08-17-29-51/241104/241104.net.xml"/>
    <additional-files value="/opt/homebrew/opt/sumo/share/sumo/tools/2024-10-08-17-29-51/241104/bus.rou.xml"/>
    <route-file value="241104_random_route_pedestrian.rou.xml"/>
    <pedestrians value="True"/>
    <persontrips value="True"/>
    <prefix value="pedestrian"/>
    <verbose value="True"/>
    <insertion-density value="70.0"/>
    <random-depart value="True"/>
</configuration>
-->

<routes xmlns:xsi="http://www.w3.org/2001/XMLSchema-instance" xsi:noNamespaceSchemaLocation="http://sumo.dlr.de/xsd/routes_file.xsd">
    <person id="pedestrian0" depart="1.22">
        <personTrip from="-624481020#3" to="115485620#0"/>
    </person>
    <person id="pedestrian1" depart="2.66">
        <personTrip from="257510648" to="-43206409"/>
    </person>
    <person id="pedestrian2" depart="6.82">
        <personTrip from="572523427" to="-285156957"/>
    </person>
    <person id="pedestrian3" depart="10.00">
        <personTrip from="-715835444#5" to="255729814#1"/>
    </person>
    <person id="pedestrian4" depart="11.98">
        <personTrip from="-700440129" to="395456769#1"/>
    </person>
    <person id="pedestrian5" depart="14.69">
        <personTrip from="150041636#1" to="150041716#3"/>
    </person>
    <person id="pedestrian6" depart="21.29">
        <personTrip from="150041636#1" to="-69990712"/>
    </person>
    <person id="pedestrian7" depart="29.99">
        <personTrip from="-1185258339" to="750404423"/>
    </person>
    <person id="pedestrian8" depart="31.29">
        <personTrip from="150041682" to="886547965#0"/>
    </person>
    <person id="pedestrian9" depart="33.96">
        <personTrip from="-378479743#6" to="-886547965#0"/>
    </person>
    <person id="pedestrian10" depart="41.15">
        <personTrip from="-149518804#2" to="150041624#3"/>
    </person>
    <person id="pedestrian11" depart="50.78">
        <personTrip from="689756683" to="286497563"/>
    </person>
    <person id="pedestrian12" depart="56.12">
        <personTrip from="150032863#3" to="22938316#0"/>
    </person>
    <person id="pedestrian13" depart="57.06">
        <personTrip from="539841923#0" to="148061769"/>
    </person>
    <person id="pedestrian14" depart="60.08">
        <personTrip from="689756683" to="365217758"/>
    </person>
    <person id="pedestrian15" depart="60.10">
        <personTrip from="409784476" to="-987109589#1"/>
    </person>
    <person id="pedestrian16" depart="70.60">
        <personTrip from="1185258339" to="255729754#1"/>
    </person>
    <person id="pedestrian17" depart="76.48">
        <personTrip from="-35771743#0" to="23508141#1"/>
    </person>
    <person id="pedestrian18" depart="77.28">
        <personTrip from="-150041624#0" to="150041682"/>
    </person>
    <person id="pedestrian19" depart="79.42">
        <personTrip from="409784476" to="-56015406#0"/>
    </person>
    <person id="pedestrian20" depart="79.51">
        <personTrip from="E1" to="319910916"/>
    </person>
    <person id="pedestrian21" depart="83.28">
        <personTrip from="-23401995#1" to="984768175"/>
    </person>
    <person id="pedestrian22" depart="84.09">
        <personTrip from="1185258336#4" to="4295817#3"/>
    </person>
    <person id="pedestrian23" depart="86.58">
        <personTrip from="-750168166#0" to="750168165"/>
    </person>
    <person id="pedestrian24" depart="87.21">
        <personTrip from="378543235#1" to="-365216932"/>
    </person>
    <person id="pedestrian25" depart="101.79">
        <personTrip from="150041699#1" to="150041636#2"/>
    </person>
    <person id="pedestrian26" depart="102.56">
        <personTrip from="-148061776#0" to="-24507771"/>
    </person>
    <person id="pedestrian27" depart="105.25">
        <personTrip from="-715913363#2" to="150032866"/>
    </person>
    <person id="pedestrian28" depart="105.33">
        <personTrip from="150032812#0" to="256105105#7"/>
    </person>
    <person id="pedestrian29" depart="111.39">
        <personTrip from="150041716#3" to="-715910744#0"/>
    </person>
    <person id="pedestrian30" depart="115.46">
        <personTrip from="257510647#1" to="-285188048"/>
    </person>
    <person id="pedestrian31" depart="117.06">
        <personTrip from="E1" to="378479743#1"/>
    </person>
    <person id="pedestrian32" depart="125.73">
        <personTrip from="-689756683" to="-750168164"/>
    </person>
    <person id="pedestrian33" depart="127.03">
        <personTrip from="478347393" to="218848626#0"/>
    </person>
    <person id="pedestrian34" depart="127.34">
        <personTrip from="334960656" to="-689756683"/>
    </person>
    <person id="pedestrian35" depart="127.90">
        <personTrip from="459339929" to="-999293416"/>
    </person>
    <person id="pedestrian36" depart="130.47">
        <personTrip from="319910910#0" to="987109589#0"/>
    </person>
    <person id="pedestrian37" depart="133.35">
        <personTrip from="256102746#1" to="4305021#0"/>
    </person>
    <person id="pedestrian38" depart="147.09">
        <personTrip from="365216936#1" to="319910923#2"/>
    </person>
    <person id="pedestrian39" depart="151.61">
        <personTrip from="-1185258342" to="150032877"/>
    </person>
    <person id="pedestrian40" depart="151.79">
        <personTrip from="886547965#1" to="4195610#2"/>
    </person>
    <person id="pedestrian41" depart="154.32">
        <personTrip from="4195580#0" to="255729814#1"/>
    </person>
    <person id="pedestrian42" depart="154.67">
        <personTrip from="365216933" to="256102746#1"/>
    </person>
    <person id="pedestrian43" depart="156.15">
        <personTrip from="-286497563" to="28247397#1"/>
    </person>
    <person id="pedestrian44" depart="156.80">
        <personTrip from="26937083#0" to="528567529"/>
    </person>
    <person id="pedestrian45" depart="162.44">
        <personTrip from="-28247397#0" to="319910916"/>
    </person>
    <person id="pedestrian46" depart="163.14">
        <personTrip from="-1287285290#1" to="77706449"/>
    </person>
    <person id="pedestrian47" depart="163.84">
        <personTrip from="-23101679#1" to="-1185258337"/>
    </person>
    <person id="pedestrian48" depart="164.48">
        <personTrip from="-700440130#0" to="-28247399"/>
    </person>
    <person id="pedestrian49" depart="164.74">
        <personTrip from="319910933#1" to="1287285290#0"/>
    </person>
    <person id="pedestrian50" depart="168.95">
        <personTrip from="4195580#0" to="715802321"/>
    </person>
    <person id="pedestrian51" depart="171.23">
        <personTrip from="624481020#2" to="377601585"/>
    </person>
    <person id="pedestrian52" depart="173.81">
        <personTrip from="-150032873" to="-256102748"/>
    </person>
    <person id="pedestrian53" depart="173.99">
        <personTrip from="-378479743#2" to="-715835444#4"/>
    </person>
    <person id="pedestrian54" depart="178.14">
        <personTrip from="29895519#2" to="196656222#1"/>
    </person>
    <person id="pedestrian55" depart="178.50">
        <personTrip from="-700440130#0" to="-29895517"/>
    </person>
    <person id="pedestrian56" depart="181.34">
        <personTrip from="700440131" to="-750168166#1"/>
    </person>
    <person id="pedestrian57" depart="185.85">
        <personTrip from="-886547965#1" to="4144040#3"/>
    </person>
    <person id="pedestrian58" depart="186.79">
        <personTrip from="365216933" to="285156957"/>
    </person>
    <person id="pedestrian59" depart="186.88">
        <personTrip from="319911561" to="256105105#9"/>
    </person>
    <person id="pedestrian60" depart="188.48">
        <personTrip from="-35098345" to="-43206316"/>
    </person>
    <person id="pedestrian61" depart="189.23">
        <personTrip from="23508142#1" to="-4144040#2"/>
    </person>
    <person id="pedestrian62" depart="192.41">
        <personTrip from="957138676#2" to="-640167405"/>
    </person>
    <person id="pedestrian63" depart="195.77">
        <personTrip from="-624481020#1" to="-378479743#2"/>
    </person>
    <person id="pedestrian64" depart="200.04">
        <personTrip from="327864907" to="-715802321"/>
    </person>
    <person id="pedestrian65" depart="205.19">
        <personTrip from="-797259708#1" to="715910744#1"/>
    </person>
    <person id="pedestrian66" depart="205.43">
        <personTrip from="4295817#3" to="-539841923#0"/>
    </person>
    <person id="pedestrian67" depart="205.43">
        <personTrip from="-23401995#3" to="319910912"/>
    </person>
    <person id="pedestrian68" depart="207.15">
        <personTrip from="1153038902#4" to="987109589#0"/>
    </person>
    <person id="pedestrian69" depart="210.57">
        <personTrip from="459339931" to="874725445"/>
    </person>
    <person id="pedestrian70" depart="210.59">
        <personTrip from="439271815#0" to="-624481020#3"/>
    </person>
    <person id="pedestrian71" depart="213.58">
        <personTrip from="-624481020#1" to="35771743#1"/>
    </person>
    <person id="pedestrian72" depart="214.74">
        <personTrip from="-77706449" to="149518802#1"/>
    </person>
    <person id="pedestrian73" depart="215.30">
        <personTrip from="-478347392#0" to="150041551#1"/>
    </person>
    <person id="pedestrian74" depart="224.86">
        <personTrip from="-366601856" to="22938316#1"/>
    </person>
    <person id="pedestrian75" depart="229.56">
        <personTrip from="715910744#1" to="327864898"/>
    </person>
    <person id="pedestrian76" depart="237.57">
        <personTrip from="-24507771" to="257510661#2"/>
    </person>
    <person id="pedestrian77" depart="239.84">
        <personTrip from="256102749" to="-4305021#0"/>
    </person>
    <person id="pedestrian78" depart="240.03">
        <personTrip from="29895520#3" to="218848625#1"/>
    </person>
    <person id="pedestrian79" depart="241.08">
        <personTrip from="28247401" to="-149518804#3"/>
    </person>
    <person id="pedestrian80" depart="245.09">
        <personTrip from="1287285290#1" to="359458217#2"/>
    </person>
    <person id="pedestrian81" depart="246.75">
        <personTrip from="-150041716#3" to="4144040#2"/>
    </person>
    <person id="pedestrian82" depart="248.22">
        <personTrip from="-1153038902#4" to="23401995#3"/>
    </person>
    <person id="pedestrian83" depart="248.33">
        <personTrip from="715835444#5" to="1207750548"/>
    </person>
    <person id="pedestrian84" depart="249.02">
        <personTrip from="749484712#1" to="638694840#1"/>
    </person>
    <person id="pedestrian85" depart="253.26">
        <personTrip from="150041551#0" to="-365216932"/>
    </person>
    <person id="pedestrian86" depart="258.08">
        <personTrip from="886404164#1" to="-715835444#2"/>
    </person>
    <person id="pedestrian87" depart="258.24">
        <personTrip from="285188050" to="700440129"/>
    </person>
    <person id="pedestrian88" depart="260.34">
        <personTrip from="-150041682" to="255729810"/>
    </person>
    <person id="pedestrian89" depart="262.32">
        <personTrip from="22911004" to="365216934"/>
    </person>
    <person id="pedestrian90" depart="263.29">
        <personTrip from="750168164" to="700440131"/>
    </person>
    <person id="pedestrian91" depart="265.33">
        <personTrip from="-29895519#1" to="689756683"/>
    </person>
    <person id="pedestrian92" depart="267.49">
        <personTrip from="-29895519#1" to="715802321"/>
    </person>
    <person id="pedestrian93" depart="269.02">
        <personTrip from="E5" to="1185258337"/>
    </person>
    <person id="pedestrian94" depart="269.31">
        <personTrip from="150041624#3" to="750168164"/>
    </person>
    <person id="pedestrian95" depart="269.76">
        <personTrip from="886404164#0" to="715835444#3"/>
    </person>
    <person id="pedestrian96" depart="271.09">
        <personTrip from="638694840#0" to="-1160713521"/>
    </person>
    <person id="pedestrian97" depart="274.77">
        <personTrip from="255729754#0" to="-22911004"/>
    </person>
    <person id="pedestrian98" depart="276.35">
        <personTrip from="987109589#1" to="-585579893"/>
    </person>
    <person id="pedestrian99" depart="276.74">
        <personTrip from="E1" to="23101679#1"/>
    </person>
    <person id="pedestrian100" depart="277.36">
        <personTrip from="150041624#2" to="750168165"/>
    </person>
    <person id="pedestrian101" depart="278.20">
        <personTrip from="55556572" to="150032863#2"/>
    </person>
    <person id="pedestrian102" depart="280.58">
        <personTrip from="-35771741" to="-23248109#0"/>
    </person>
    <person id="pedestrian103" depart="281.00">
        <personTrip from="-285188048" to="150032812#1"/>
    </person>
    <person id="pedestrian104" depart="284.62">
        <personTrip from="-478347392#0" to="-327864903#0"/>
    </person>
    <person id="pedestrian105" depart="284.87">
        <personTrip from="378479743#0" to="4213561#1"/>
    </person>
    <person id="pedestrian106" depart="285.46">
        <personTrip from="255729754#0" to="378543238"/>
    </person>
    <person id="pedestrian107" depart="290.88">
        <personTrip from="-29895519#1" to="56028463#0"/>
    </person>
    <person id="pedestrian108" depart="291.16">
        <personTrip from="694836606" to="478347392#1"/>
    </person>
    <person id="pedestrian109" depart="292.79">
        <personTrip from="150041716#3" to="-150041645#0"/>
    </person>
    <person id="pedestrian110" depart="292.94">
        <personTrip from="29895520#3" to="-29895520#3"/>
    </person>
    <person id="pedestrian111" depart="295.30">
        <personTrip from="-256102751#0" to="-715835444#3"/>
    </person>
    <person id="pedestrian112" depart="297.21">
        <personTrip from="-43206409" to="-478347393"/>
    </person>
    <person id="pedestrian113" depart="298.56">
        <personTrip from="-4209642" to="378543235#0"/>
    </person>
    <person id="pedestrian114" depart="298.85">
        <personTrip from="847071794" to="-689912267#0"/>
    </person>
    <person id="pedestrian115" depart="300.37">
        <personTrip from="365216934" to="-1185258336#0"/>
    </person>
    <person id="pedestrian116" depart="302.01">
        <personTrip from="285295366" to="319911561"/>
    </person>
    <person id="pedestrian117" depart="302.87">
        <personTrip from="-150032770#6" to="-23401995#1"/>
    </person>
    <person id="pedestrian118" depart="303.16">
        <personTrip from="-69990704" to="1185258343"/>
    </person>
    <person id="pedestrian119" depart="303.31">
        <personTrip from="150041661" to="694836605"/>
    </person>
    <person id="pedestrian120" depart="306.65">
        <personTrip from="327864907" to="-700440128"/>
    </person>
    <person id="pedestrian121" depart="307.53">
        <personTrip from="-23401995#1" to="700440139"/>
    </person>
    <person id="pedestrian122" depart="308.06">
        <personTrip from="-638694840#1" to="257510648"/>
    </person>
    <person id="pedestrian123" depart="314.30">
        <personTrip from="-409784476" to="-23599727#0"/>
    </person>
    <person id="pedestrian124" depart="318.32">
        <personTrip from="-28247400#0" to="378479743#6"/>
    </person>
    <person id="pedestrian125" depart="322.75">
        <personTrip from="256105105#6" to="1287285290#3"/>
    </person>
    <person id="pedestrian126" depart="323.27">
        <personTrip from="23401995#2" to="150032863#4"/>
    </person>
    <person id="pedestrian127" depart="323.74">
        <personTrip from="22938316#0" to="29895520#0"/>
    </person>
    <person id="pedestrian128" depart="326.91">
        <personTrip from="-409784476" to="-43206409"/>
    </person>
    <person id="pedestrian129" depart="327.67">
        <personTrip from="378543235#1" to="624481020#2"/>
    </person>
    <person id="pedestrian130" depart="329.75">
        <personTrip from="-150041636#0" to="149518804#3"/>
    </person>
    <person id="pedestrian131" depart="330.17">
        <personTrip from="327864907" to="-150041624#2"/>
    </person>
    <person id="pedestrian132" depart="332.15">
        <personTrip from="24509268" to="-150032770#6"/>
    </person>
    <person id="pedestrian133" depart="332.17">
        <personTrip from="23401995#2" to="150041682"/>
    </person>
    <person id="pedestrian134" depart="335.09">
        <personTrip from="255729797#1" to="-28247397#1"/>
    </person>
    <person id="pedestrian135" depart="335.92">
        <personTrip from="-715910744#0" to="185104104"/>
    </person>
    <person id="pedestrian136" depart="338.28">
        <personTrip from="-23248118" to="-378479743#1"/>
    </person>
    <person id="pedestrian137" depart="347.72">
        <personTrip from="256102746#1" to="-150041689"/>
    </person>
    <person id="pedestrian138" depart="347.92">
        <personTrip from="150041699#2" to="439271817#2"/>
    </person>
    <person id="pedestrian139" depart="359.72">
        <personTrip from="150032770#5" to="150041716#2"/>
    </person>
    <person id="pedestrian140" depart="360.95">
        <personTrip from="150032812#0" to="-150032770#2"/>
    </person>
    <person id="pedestrian141" depart="369.97">
        <personTrip from="150032842" to="439271815#1"/>
    </person>
    <person id="pedestrian142" depart="372.36">
        <personTrip from="365216934" to="1185258337"/>
    </person>
    <person id="pedestrian143" depart="375.66">
        <personTrip from="459339929" to="378479743#5"/>
    </person>
    <person id="pedestrian144" depart="375.76">
        <personTrip from="255729814#1" to="-148061776#0"/>
    </person>
    <person id="pedestrian145" depart="378.16">
        <personTrip from="-750404423" to="-150032873"/>
    </person>
    <person id="pedestrian146" depart="379.75">
        <personTrip from="E3" to="749484712#1"/>
    </person>
    <person id="pedestrian147" depart="381.36">
        <personTrip from="-150041551#3" to="715910744#1"/>
    </person>
    <person id="pedestrian148" depart="383.95">
        <personTrip from="-1287285290#1" to="1287285289"/>
    </person>
    <person id="pedestrian149" depart="387.15">
        <personTrip from="4144040#1" to="4144040#0"/>
    </person>
    <person id="pedestrian150" depart="389.47">
        <personTrip from="984768176#2" to="285188050"/>
    </person>
    <person id="pedestrian151" depart="395.31">
        <personTrip from="1287285294" to="E3"/>
    </person>
    <person id="pedestrian152" depart="396.21">
        <personTrip from="115485617" to="624481020#0"/>
    </person>
    <person id="pedestrian153" depart="396.54">
        <personTrip from="700440129" to="1153038902#0"/>
    </person>
    <person id="pedestrian154" depart="397.57">
        <personTrip from="319910922" to="29895519#2"/>
    </person>
    <person id="pedestrian155" depart="397.74">
        <personTrip from="22938316#1" to="285295366"/>
    </person>
    <person id="pedestrian156" depart="405.27">
        <personTrip from="-77706449" to="-29895520#0"/>
    </person>
    <person id="pedestrian157" depart="406.81">
        <personTrip from="22938316#0" to="218649572"/>
    </person>
    <person id="pedestrian158" depart="408.36">
        <personTrip from="365217758" to="-4144040#1"/>
    </person>
    <person id="pedestrian159" depart="411.81">
        <personTrip from="-1153038902#2" to="-1185258339"/>
    </person>
    <person id="pedestrian160" depart="411.85">
        <personTrip from="-640167405" to="319910910#0"/>
    </person>
    <person id="pedestrian161" depart="413.75">
        <personTrip from="23248118" to="218848626#0"/>
    </person>
    <person id="pedestrian162" depart="420.13">
        <personTrip from="478347391" to="-43206409"/>
    </person>
    <person id="pedestrian163" depart="420.93">
        <personTrip from="-77706449" to="-539841923#1"/>
    </person>
    <person id="pedestrian164" depart="421.99">
        <personTrip from="750168164" to="365216936#0"/>
    </person>
    <person id="pedestrian165" depart="423.68">
        <personTrip from="-23248109#0" to="439271817#2"/>
    </person>
    <person id="pedestrian166" depart="424.51">
        <personTrip from="1287285290#4" to="4144040#0"/>
    </person>
    <person id="pedestrian167" depart="428.70">
        <personTrip from="689912266" to="-1185258336#3"/>
    </person>
    <person id="pedestrian168" depart="432.72">
        <personTrip from="-378479743#1" to="-182982119#1"/>
    </person>
    <person id="pedestrian169" depart="435.62">
        <personTrip from="-1287285290#2" to="256105105#2"/>
    </person>
    <person id="pedestrian170" depart="436.38">
        <personTrip from="327864903#1" to="-149518804#0"/>
    </person>
    <person id="pedestrian171" depart="438.00">
        <personTrip from="378479743#2" to="1185258340#0"/>
    </person>
    <person id="pedestrian172" depart="442.55">
        <personTrip from="-4195580#2" to="-378491236"/>
    </person>
    <person id="pedestrian173" depart="443.28">
        <personTrip from="56447699#1" to="-150032770#1"/>
    </person>
    <person id="pedestrian174" depart="446.14">
        <personTrip from="150041682" to="-624481020#1"/>
    </person>
    <person id="pedestrian175" depart="447.90">
        <personTrip from="459339929" to="366601855"/>
    </person>
    <person id="pedestrian176" depart="449.03">
        <personTrip from="-715835444#1" to="256105105#2"/>
    </person>
    <person id="pedestrian177" depart="454.48">
        <personTrip from="319910910#0" to="-715835444#2"/>
    </person>
    <person id="pedestrian178" depart="455.62">
        <personTrip from="-689912267#0" to="-26730977#2"/>
    </person>
    <person id="pedestrian179" depart="456.09">
        <personTrip from="29895519#1" to="-4144040#0"/>
    </person>
    <person id="pedestrian180" depart="458.62">
        <personTrip from="-689912267#0" to="-150032770#6"/>
    </person>
    <person id="pedestrian181" depart="464.80">
        <personTrip from="77706449" to="640167405"/>
    </person>
    <person id="pedestrian182" depart="464.83">
        <personTrip from="700440130#1" to="28230108"/>
    </person>
    <person id="pedestrian183" depart="466.22">
        <personTrip from="13858854" to="150041624#3"/>
    </person>
    <person id="pedestrian184" depart="467.47">
        <personTrip from="957138676#0" to="750168166#1"/>
    </person>
    <person id="pedestrian185" depart="467.72">
        <personTrip from="30147052" to="4213557"/>
    </person>
    <person id="pedestrian186" depart="468.11">
        <personTrip from="-715835444#1" to="1287285290#3"/>
    </person>
    <person id="pedestrian187" depart="469.14">
        <personTrip from="-28247397#1" to="1153038902#0"/>
    </person>
    <person id="pedestrian188" depart="469.50">
        <personTrip from="378543235#0" to="150032866"/>
    </person>
    <person id="pedestrian189" depart="470.79">
        <personTrip from="539841923#1" to="-689912267#0"/>
    </person>
    <person id="pedestrian190" depart="471.25">
        <personTrip from="334960656" to="439271815#0"/>
    </person>
    <person id="pedestrian191" depart="472.56">
        <personTrip from="700440138" to="23599727#1"/>
    </person>
    <person id="pedestrian192" depart="475.75">
        <personTrip from="886547965#1" to="23508142#1"/>
    </person>
    <person id="pedestrian193" depart="477.15">
        <personTrip from="-23599727#1" to="-4305021#0"/>
    </person>
    <person id="pedestrian194" depart="481.52">
        <personTrip from="-378479743#0" to="285188051#0"/>
    </person>
    <person id="pedestrian195" depart="482.78">
        <personTrip from="715835444#1" to="539841923#0"/>
    </person>
    <person id="pedestrian196" depart="489.96">
        <personTrip from="-150041699#1" to="365216936#0"/>
    </person>
    <person id="pedestrian197" depart="494.78">
        <personTrip from="-35098345" to="-494297578#1"/>
    </person>
    <person id="pedestrian198" depart="497.44">
        <personTrip from="319910910#0" to="256105105#5"/>
    </person>
    <person id="pedestrian199" depart="497.55">
        <personTrip from="624481020#2" to="-327864903#1"/>
    </person>
    <person id="pedestrian200" depart="497.77">
        <personTrip from="395456769#0" to="365216936#0"/>
    </person>
    <person id="pedestrian201" depart="500.53">
        <personTrip from="23508224" to="150041551#1"/>
    </person>
    <person id="pedestrian202" depart="503.00">
        <personTrip from="624481020#0" to="-715913363#2"/>
    </person>
    <person id="pedestrian203" depart="509.15">
        <personTrip from="881694397" to="-1185258336#3"/>
    </person>
    <person id="pedestrian204" depart="510.91">
        <personTrip from="750168164" to="886404164#0"/>
    </person>
    <person id="pedestrian205" depart="512.95">
        <personTrip from="-23401995#1" to="E6"/>
    </person>
    <person id="pedestrian206" depart="517.32">
        <personTrip from="150041551#1" to="-4305021#0"/>
    </person>
    <person id="pedestrian207" depart="517.80">
        <personTrip from="256105105#6" to="-378479743#0"/>
    </person>
    <person id="pedestrian208" depart="518.23">
        <personTrip from="700440138" to="23508141#0"/>
    </person>
    <person id="pedestrian209" depart="521.23">
        <personTrip from="4195580#0" to="1153038902#4"/>
    </person>
    <person id="pedestrian210" depart="522.20">
        <personTrip from="218848626#1" to="-984768175"/>
    </person>
    <person id="pedestrian211" depart="522.96">
        <personTrip from="-478347393" to="150041716#1"/>
    </person>
    <person id="pedestrian212" depart="523.13">
        <personTrip from="150041636#0" to="-150041716#2"/>
    </person>
    <person id="pedestrian213" depart="525.00">
        <personTrip from="987109589#0" to="150032863#3"/>
    </person>
    <person id="pedestrian214" depart="525.48">
        <personTrip from="52414187" to="700440138"/>
    </person>
    <person id="pedestrian215" depart="532.16">
        <personTrip from="-E1" to="1287285290#2"/>
    </person>
    <person id="pedestrian216" depart="535.95">
        <personTrip from="23599727#1" to="-4144040#0"/>
    </person>
    <person id="pedestrian217" depart="536.31">
        <personTrip from="-28230108" to="-478347393"/>
    </person>
    <person id="pedestrian218" depart="541.62">
        <personTrip from="749484712#1" to="256102744"/>
    </person>
    <person id="pedestrian219" depart="546.75">
        <personTrip from="1287285290#3" to="-28247400#0"/>
    </person>
    <person id="pedestrian220" depart="546.98">
        <personTrip from="-715910744#1" to="1153038902#4"/>
    </person>
    <person id="pedestrian221" depart="555.43">
        <personTrip from="494297578#1" to="150041636#1"/>
    </person>
    <person id="pedestrian222" depart="555.53">
        <personTrip from="286497563" to="319910923#0"/>
    </person>
    <person id="pedestrian223" depart="560.18">
        <personTrip from="-478347392#0" to="47492539"/>
    </person>
    <person id="pedestrian224" depart="562.13">
        <personTrip from="886547965#0" to="283117346#1"/>
    </person>
    <person id="pedestrian225" depart="563.07">
        <personTrip from="150041624#0" to="-285188051#2"/>
    </person>
    <person id="pedestrian226" depart="566.71">
        <personTrip from="4295817#3" to="-285295366"/>
    </person>
    <person id="pedestrian227" depart="568.59">
        <personTrip from="365216933" to="150041594#0"/>
    </person>
    <person id="pedestrian228" depart="571.07">
        <personTrip from="700440139" to="23101679#1"/>
    </person>
    <person id="pedestrian229" depart="574.19">
        <personTrip from="283117346#1" to="-150032770#5"/>
    </person>
    <person id="pedestrian230" depart="579.32">
        <personTrip from="-1287285290#2" to="539841923#0"/>
    </person>
    <person id="pedestrian231" depart="585.54">
        <personTrip from="750404423" to="29895520#2"/>
    </person>
    <person id="pedestrian232" depart="586.44">
        <personTrip from="409784476" to="1287285290#1"/>
    </person>
    <person id="pedestrian233" depart="596.28">
        <personTrip from="539509020" to="-4195580#1"/>
    </person>
    <person id="pedestrian234" depart="598.83">
        <personTrip from="334960656" to="-115485620#1"/>
    </person>
    <person id="pedestrian235" depart="599.28">
        <personTrip from="150041689" to="-E1.13"/>
    </person>
    <person id="pedestrian236" depart="603.93">
        <personTrip from="26730977#2" to="29895520#2"/>
    </person>
    <person id="pedestrian237" depart="604.82">
        <personTrip from="257510661#2" to="150041565"/>
    </person>
    <person id="pedestrian238" depart="606.53">
        <personTrip from="150041594#0" to="-115485620#0"/>
    </person>
    <person id="pedestrian239" depart="608.60">
        <personTrip from="23508141#0" to="-1185258336#0"/>
    </person>
    <person id="pedestrian240" depart="610.45">
        <personTrip from="218848625#1" to="-539841923#1"/>
    </person>
    <person id="pedestrian241" depart="612.93">
        <personTrip from="984768176#1" to="-1185258336#4"/>
    </person>
    <person id="pedestrian242" depart="621.84">
        <personTrip from="439271818#2" to="319910910#1"/>
    </person>
    <person id="pedestrian243" depart="623.97">
        <personTrip from="439271815#1" to="700440130#0"/>
    </person>
    <person id="pedestrian244" depart="624.25">
        <personTrip from="-22911004" to="-150041716#1"/>
    </person>
    <person id="pedestrian245" depart="632.29">
        <personTrip from="-28247397#1" to="-35098345"/>
    </person>
    <person id="pedestrian246" depart="633.42">
        <personTrip from="196656222#2" to="459339929"/>
    </person>
    <person id="pedestrian247" depart="634.40">