<?xml version="1.0" encoding="UTF-8"?>

<!-- generated on 2024-10-08 17:27:33.826423 by randomTrips.py UNKNOWN
<configuration>
    <net-file value="osm.net.xml.gz"/>
    <output-trip-file value="osm.motorcycle.trips.xml"/>
    <route-file value="osm.motorcycle.rou.xml"/>
    <prefix value="motorcycle"/>
    <trip-attributes value="departLane=&quot;best&quot;"/>
    <fringe-start-attributes value="departSpeed=&quot;max&quot;"/>
    <vehicle-class value="motorcycle"/>
    <fringe-factor value="2"/>
    <vclass value="motorcycle"/>
    <via-edge-types value="highway.motorway,highway.motorway_link,highway.trunk_link,highway.primary_link,highway.secondary_link,highway.tertiary_link"/>
    <max-distance value="1200.0"/>
    <remove-loops value="True"/>
    <validate value="True"/>
    <insertion-density value="4.0"/>
</configuration>
-->

<!-- generated on 2024-10-08 17:27:33 by Eclipse SUMO duarouter Version 1.20.0
<configuration xmlns:xsi="http://www.w3.org/2001/XMLSchema-instance" xsi:noNamespaceSchemaLocation="http://sumo.dlr.de/xsd/duarouterConfiguration.xsd">

    <input>
        <net-file value="osm.net.xml.gz"/>
        <route-files value="osm.motorcycle.trips.xml"/>
    </input>

    <output>
        <output-file value="osm.motorcycle.trips.xml.tmp"/>
        <alternatives-output value="NUL"/>
        <write-trips value="true"/>
    </output>

    <processing>
        <remove-loops value="true"/>
    </processing>

    <time>
        <begin value="0.0"/>
        <end value="3600.0"/>
    </time>

    <report>
        <no-warnings value="true"/>
        <ignore-errors value="true"/>
        <no-step-log value="true"/>
    </report>

</configuration>
-->

<routes xmlns:xsi="http://www.w3.org/2001/XMLSchema-instance" xsi:noNamespaceSchemaLocation="http://sumo.dlr.de/xsd/routes_file.xsd">
    <vType id="motorcycle_motorcycle" vClass="motorcycle"/>
    <trip id="motorcycle0" type="motorcycle_motorcycle" depart="0.00" departLane="best" departSpeed="max" from="4144040#0" to="-150032770#0"/>
    <trip id="motorcycle1" type="motorcycle_motorcycle" depart="65.11" departLane="best" from="700440128" to="-4195580#1"/>
    <trip id="motorcycle2" type="motorcycle_motorcycle" depart="130.23" departLane="best" departSpeed="max" from="43206315" to="4144040#1"/>
    <trip id="motorcycle3" type="motorcycle_motorcycle" depart="195.34" departLane="best" from="700440130#1" to="150041563"/>
    <trip id="motorcycle4" type="motorcycle_motorcycle" depart="260.45" departLane="best" from="-150032770#3" to="-150032770#1"/>
    <trip id="motorcycle5" type="motorcycle_motorcycle" depart="325.57" departLane="best" from="-4295833#2" to="-150041551#3"/>
    <trip id="motorcycle7" type="motorcycle_motorcycle" depart="455.79" departLane="best" from="4144040#1" to="214812788#2"/>
    <trip id="motorcycle8" type="motorcycle_motorcycle" depart="520.91" departLane="best" from="-4295833#2" to="23508142#2"/>
    <trip id="motorcycle9" type="motorcycle_motorcycle" depart="586.02" departLane="best" from="53207959#0" to="-4195580#1"/>
    <trip id="motorcycle10" type="motorcycle_motorcycle" depart="651.13" departLane="best" departSpeed="max" from="-715835444#6" to="23508224"/>
    <trip id="motorcycle11" type="motorcycle_motorcycle" depart="716.25" departLane="best" from="715835444#3" to="-689912267#1"/>
    <trip id="motorcycle12" type="motorcycle_motorcycle" depart="781.36" departLane="best" from="196656222#2" to="-150041565"/>
    <trip id="motorcycle13" type="motorcycle_motorcycle" depart="846.48" departLane="best" from="624481020#3" to="254075881#1"/>
    <trip id="motorcycle14" type="motorcycle_motorcycle" depart="911.59" departLane="best" from="53207959#0" to="4295817#0"/>
    <trip id="motorcycle15" type="motorcycle_motorcycle" depart="976.70" departLane="best" from="23508142#0" to="715835444#6"/>
    <trip id="motorcycle16" type="motorcycle_motorcycle" depart="1041.82" departLane="best" from="1290085525#0" to="23015831"/>
    <trip id="motorcycle17" type="motorcycle_motorcycle" depart="1106.93" departLane="best" departSpeed="max" from="624481020#0" to="378479743#0"/>
    <trip id="motorcycle18" type="motorcycle_motorcycle" depart="1172.04" departLane="best" from="689912267#1" to="23508141#2"/>
    <trip id="motorcycle19" type="motorcycle_motorcycle" depart="1237.16" departLane="best" from="-4295833#0" to="-150032770#2"/>
    <trip id="motorcycle20" type="motorcycle_motorcycle" depart="1302.27" departLane="best" from="-4295833#4" to="-53207957"/>
    <trip id="motorcycle21" type="motorcycle_motorcycle" depart="1367.38" departLane="best" from="-182982119#1" to="-4295817#0"/>
    <trip id="motorcycle22" type="motorcycle_motorcycle" depart="1432.50" departLane="best" from="23248109#0" to="-51873805"/>
    <trip id="motorcycle24" type="motorcycle_motorcycle" depart="1562.72" departLane="best" departSpeed="max" from="1265069359" to="-4144040#3"/>
    <trip id="motorcycle25" type="motorcycle_motorcycle" depart="1627.84" departLane="best" from="689912267#0" to="70205228#1"/>
    <trip id="motorcycle26" type="motorcycle_motorcycle" depart="1692.95" departLane="best" from="4144040#1" to="35574708#1"/>
    <trip id="motorcycle27" type="motorcycle_motorcycle" depart="1758.06" departLane="best" from="4144040#3" to="4295817#0"/>
    <trip id="motorcycle28" type="motorcycle_motorcycle" depart="1823.18" departLane="best" from="-4144040#1" to="715835444#1"/>
    <trip id="motorcycle29" type="motorcycle_motorcycle" depart="1888.29" departLane="best" departSpeed="max" from="874106321" to="378479743#5"/>
    <trip id="motorcycle30" type="motorcycle_motorcycle" depart="1953.40" departLane="best" from="24509268" to="4144040#3"/>
    <trip id="motorcycle31" type="motorcycle_motorcycle" depart="2018.52" departLane="best" from="624481020#2" to="44973978"/>
    <trip id="motorcycle32" type="motorcycle_motorcycle" depart="2083.63" departLane="best" from="-4295833#4" to="-150032770#1"/>
    <trip id="motorcycle33" type="motorcycle_motorcycle" depart="2148.75" departLane="best" from="-715835444#2" to="4295833#4"/>
    <trip id="motorcycle34" type="motorcycle_motorcycle" depart="2213.86" departLane="best" from="-4295833#0" to="70205228#2"/>
    <trip id="motorcycle36" type="motorcycle_motorcycle" depart="2344.09" departLane="best" from="-4144040#2" to="715835444#4"/>
    <trip id="motorcycle37" type="motorcycle_motorcycle" depart="2409.20" departLane="best" from="700440137" to="-150032770#11"/>
    <trip id="motorcycle38" type="motorcycle_motorcycle" depart="2474.31" departLane="best" from="689912267#0" to="4295833#0"/>
    <trip id="motorcycle40" type="motorcycle_motorcycle" depart="2604.54" departLane="best" from="-378479743#2" to="700440131"/>
    <trip id="motorcycle42" type="motorcycle_motorcycle" depart="2734.77" departLane="best" from="-881694399" to="150041563"/>
    <trip id="motorcycle43" type="motorcycle_motorcycle" depart="2799.88" departLane="best" from="196656222#2" to="-150032770#2"/>
    <trip id="motorcycle44" type="motorcycle_motorcycle" depart="2864.99" departLane="best" from="23508141#0" to="378479743#2"/>
    <trip id="motorcycle45" type="motorcycle_motorcycle" depart="2930.11" departLane="best" from="506015832" to="116556686#1"/>
    <trip id="motorcycle46" type="motorcycle_motorcycle" depart="2995.22" departLane="best" from="-150041551#3" to="-715835444#1"/>
    <trip id="motorcycle47" type="motorcycle_motorcycle" depart="3060.33" departLane="best" from="-881694399" to="-196656222#0"/>
    <trip id="motorcycle48" type="motorcycle_motorcycle" depart="3125.45" departLane="best" from="700440133" to="-689912267#1"/>
    <trip id="motorcycle49" type="motorcycle_motorcycle" depart="3190.56" departLane="best" from="150032770#1" to="4212051"/>
    <trip id="motorcycle50" type="motorcycle_motorcycle" depart="3255.67" departLane="best" from="4195610#0" to="-196656222#2"/>
    <trip id="motorcycle51" type="motorcycle_motorcycle" depart="3320.79" departLane="best" from="689912267#0" to="378479743#5"/>
    <trip id="motorcycle52" type="motorcycle_motorcycle" depart="3385.90" departLane="best" from="23508141#0" to="-1265069358#1"/>
    <trip id="motorcycle53" type="motorcycle_motorcycle" depart="3451.02" departLane="best" from="-150041551#3" to="-715835444#3"/>
    <trip id="motorcycle55" type="motorcycle_motorcycle" depart="3581.24" departLane="best" from="214812786" to="378479743#4"/>
</routes>
