<?xml version="1.0" encoding="UTF-8"?>

<!-- generated on 2024-10-08 17:27:33.418009 by randomTrips.py UNKNOWN
<configuration>
    <net-file value="osm.net.xml.gz"/>
    <output-trip-file value="osm.bus.trips.xml"/>
    <route-file value="osm.bus.rou.xml"/>
    <prefix value="bus"/>
    <trip-attributes value="departLane=&quot;best&quot;"/>
    <fringe-start-attributes value="departSpeed=&quot;max&quot;"/>
    <vehicle-class value="bus"/>
    <fringe-factor value="5"/>
    <vclass value="bus"/>
    <via-edge-types value="highway.motorway,highway.motorway_link,highway.trunk_link,highway.primary_link,highway.secondary_link,highway.tertiary_link"/>
    <min-distance value="600.0"/>
    <min-distance.fringe value="10.0"/>
    <remove-loops value="True"/>
    <validate value="True"/>
    <insertion-density value="4.0"/>
</configuration>
-->

<!-- generated on 2024-10-08 17:27:33 by Eclipse SUMO duarouter Version 1.20.0
<configuration xmlns:xsi="http://www.w3.org/2001/XMLSchema-instance" xsi:noNamespaceSchemaLocation="http://sumo.dlr.de/xsd/duarouterConfiguration.xsd">

    <input>
        <net-file value="osm.net.xml.gz"/>
        <route-files value="osm.bus.trips.xml"/>
    </input>

    <output>
        <output-file value="osm.bus.rou.xml"/>
        <alternatives-output value="NUL"/>
    </output>

    <processing>
        <remove-loops value="true"/>
    </processing>

    <time>
        <begin value="0.0"/>
        <end value="3600.0"/>
    </time>

    <report>
        <no-warnings value="true"/>
        <ignore-errors value="true"/>
        <no-step-log value="true"/>
    </report>

</configuration>
-->

<routes xmlns:xsi="http://www.w3.org/2001/XMLSchema-instance" xsi:noNamespaceSchemaLocation="http://sumo.dlr.de/xsd/routes_file.xsd">
    <vType id="bus_bus" vClass="bus"/>
    <vehicle id="bus2" type="bus_bus" depart="127.84" departLane="best" departSpeed="max">
        <route edges="4144040#0 4195580#0 4195580#1 4195580#2 60263960 116556688 43135644#0 378479740#1 -700440136 -56163443#3 -150041594#1 -1290085526#1 -700440129 -700440128 -700440130#1 -700440130#0 -196656222#2 -196656222#1 -196656222#0 -53207957"/>
    </vehicle>
    <vehicle id="bus3" type="bus_bus" depart="191.77" departLane="best">
        <route edges="23248109#0 23248109#1 -378479743#3 -378479743#2 -378479743#1 -378479743#0 -253272005 -214846345#3 -214846345#2 -214846345#1 116556686#1 -60263960 715835444#1 -23508141#1 23508142#0 23508142#1 -150041563"/>
    </vehicle>
    <vehicle id="bus7" type="bus_bus" depart="447.45" departLane="best" departSpeed="max">
        <route edges="378543233#0 378543233#2 378543233#3 395456769#1 24509268 700440138 700440139 -378479743#6 -378479743#5 -378479743#4 -378479743#3 -378479743#2 -378479743#1 -378479743#0 -253272005 -214846345#3 -214846345#2 -214846345#1 -38115197#1 -38115197#0 -700440136 -56163443#3 -150041594#1 -1290085526#1 -700440129 -700440128 -700440130#1 -700440130#0"/>
    </vehicle>
    <vehicle id="bus8" type="bus_bus" depart="511.37" departLane="best">
        <route edges="-881694399 -182982119#1 56163443#1 700440137 700440134 715913363#2 1290085525#0 1290085525#1 700440148 378479743#0 378479743#1 378479743#2 378479743#3 378479743#4 378479743#5 378479743#6 700236092#0 700236092#1 700236093 44973978 506013711#1 4019053#2 -150032770#12 -150032770#11 -150032770#8 -150032770#7 -150032770#5 -150032770#4 -150032770#3"/>
    </vehicle>
    <vehicle id="bus10" type="bus_bus" depart="639.22" departLane="best" departSpeed="max">
        <route edges="-715835444#6 -715835444#5 -715835444#4 150041551#0 150041551#1 150041551#2 56163443#1 700440137 700440134 715913363#2 1290085525#0 1290085525#1 700440148 378479743#0 378479743#1 378479743#2 378479743#3 378479743#4 378479743#5 378479743#6 700236092#0 700236092#1 700236093 44973978 506013711#1 35574708#1"/>
    </vehicle>
    <vehicle id="bus11" type="bus_bus" depart="703.14" departLane="best" departSpeed="max">
        <route edges="38115188 150041593 196656222#0 196656222#1 196656222#2 700440130#0 700440130#1 700440128 700440129 1290085526#0 150041594#0 56163443#1 700440137 700440134 715913363#2 1290085525#0 1290085525#1 700440148 378479743#0 378479743#1 75392301#0 75392301#1 23015831"/>
    </vehicle>
    <vehicle id="bus12" type="bus_bus" depart="767.06" departLane="best" departSpeed="max">
        <route edges="492925920#0 492925920#1 395456768 395456769#0 395456769#1 24509268 700440138 700440139 -378479743#6 -378479743#5 -378479743#4 -378479743#3 -378479743#2 -378479743#1 -378479743#0 -253272005 -214846345#3 -214846345#2 -214846345#1 -38115197#1 -38115197#0 -700440136 -56163443#3 -150041551#3 -150041551#1 -150041551#0 150041563"/>
    </vehicle>
    <vehicle id="bus13" type="bus_bus" depart="830.98" departLane="best" departSpeed="max">
        <route edges="492925920#0 492925920#1 395456768 395456769#0 395456769#1 24509268 700440138 700440139 -378479743#6 -378479743#5 -378479743#4 -378479743#3 -378479743#2 -378479743#1 -378479743#0 -253272005 -214846345#3 -214846345#2 -214846345#1 -38115197#1 -38115197#0 -700440136 -56163443#3 -150041551#3 -150041551#1"/>
    </vehicle>
    <vehicle id="bus14" type="bus_bus" depart="894.90" departLane="best">
        <route edges="1265069358#1 -378479743#6 -378479743#5 -378479743#4 -378479743#3 -378479743#2 -378479743#1 -378479743#0 -253272005 -214846345#3 -214846345#2 -214846345#1 -38115197#1 -38115197#0 -700440136 -56163443#3 -150041594#1 -1290085526#1 -700440129 -700440128 -700440130#1 -700440130#0 -196656222#2 -196656222#1 -196656222#0 -53207957"/>
    </vehicle>
    <vehicle id="bus16" type="bus_bus" depart="1022.75" departLane="best" departSpeed="max">
        <route edges="-715835444#6 -715835444#5 -715835444#4 150041551#0 150041551#1 150041551#2 56163443#1 700440137 700440134 715913363#2 1290085525#0 1290085525#1 700440148 378479743#0 378479743#1 378479743#2 378479743#3 378479743#4 378479743#5 378479743#6 700236092#0 700236092#1 700236093 44973978 506013711#1 4019053#2 -150032770#12"/>
    </vehicle>
    <vehicle id="bus17" type="bus_bus" depart="1086.67" departLane="best">
        <route edges="196656222#1 196656222#2 700440130#0 700440130#1 700440128 700440129 1290085526#0 150041594#0 56163443#1 700440137 700440134 715913363#2 1290085525#0 1290085525#1 700440148 378479743#0 378479743#1 378479743#2 378479743#3 378479743#4 378479743#5 378479743#6 700236092#0 700236092#1 700236093 44973978 506013711#1 35574708#1 4212051"/>
    </vehicle>
    <vehicle id="bus18" type="bus_bus" depart="1150.59" departLane="best" departSpeed="max">
        <route edges="492925920#0 492925920#1 395456768 395456769#0 395456769#1 24509268 700440138 700440139 -378479743#6 -378479743#5 -378479743#4 -378479743#3 -378479743#2 -378479743#1 -378479743#0 -253272005 -214846345#3 -214846345#2 -214846345#1 -38115197#1 -38115197#0 -700440136 -56163443#3 -150041594#1 -1290085526#1 -700440129 -700440128 -700440130#1 -700440130#0 -196656222#2 -196656222#1 -196656222#0"/>
    </vehicle>
    <vehicle id="bus19" type="bus_bus" depart="1214.51" departLane="best" departSpeed="max">
        <route edges="150041565 700440130#0 700440130#1 700440128 700440129 1290085526#0 150041594#0 56163443#1 700440137 700440134 715913363#2 1290085525#0 1290085525#1 700440148 378479743#0 378479743#1 378479743#2 378479743#3 378479743#4 378479743#5 378479743#6 700236092#0 700236092#1 700236093 44973978 506013711#1 4019053#2 -150032770#12 -150032770#11 -150032770#8 -150032770#7 -150032770#5"/>
    </vehicle>
    <vehicle id="bus20" type="bus_bus" depart="1278.43" departLane="best">
        <route edges="196656222#1 196656222#2 700440130#0 700440130#1 700440128 700440129 1290085526#0 150041594#0 56163443#1 700440137 700440134 214846345#1 214846345#2 214846345#3 253272005"/>
    </vehicle>
    <vehicle id="bus24" type="bus_bus" depart="1534.12" departLane="best" departSpeed="max">
        <route edges="150041565 700440130#0 700440130#1 700440128 700440129 1290085526#0 150041594#0 56163443#1 700440137 700440134 214812788#2 73372559 -689912267#1 -689912267#0 -624481020#4 -624481020#3"/>
    </vehicle>
    <vehicle id="bus25" type="bus_bus" depart="1598.04" departLane="best">
        <route edges="378543233#2 378543233#3 395456769#1 24509268 700440138 700440139 -378479743#6 -378479743#5 -378479743#4 -378479743#3 -378479743#2 -378479743#1 -378479743#0 -253272005 -214846345#3 -214846345#2 -214846345#1 116556686#1 -60263960 715835444#1 -23508141#1 23508142#0 23508142#1 23508142#2"/>
    </vehicle>
    <vehicle id="bus26" type="bus_bus" depart="1661.96" departLane="best">
        <route edges="56163443#1 700440137 700440134 715913363#2 1290085525#0 1290085525#1 700440148 378479743#0 378479743#1 378479743#2 378479743#3 378479743#4 378479743#5 378479743#6 700236092#0 700236092#1 700236093 44973978 506013711#1 4019053#2"/>
    </vehicle>
    <vehicle id="bus27" type="bus_bus" depart="1725.89" departLane="best" departSpeed="max">
        <route edges="38115188 150041593 196656222#0 196656222#1 196656222#2 700440130#0 700440130#1 700440128 700440129 1290085526#0 150041594#0 56163443#1 700440137 700440134 214812788#2 73372559"/>
    </vehicle>
    <vehicle id="bus28" type="bus_bus" depart="1789.81" departLane="best">
        <route edges="-378479743#4 -378479743#3 -378479743#2 -378479743#1 -378479743#0 -253272005 -214846345#3 -214846345#2 -214846345#1 -38115197#1 -38115197#0 -700440136 -56163443#3 -150041594#1 -1290085526#1 -700440129 -700440128 -700440130#1 -700440130#0 -150041565"/>
    </vehicle>
    <vehicle id="bus29" type="bus_bus" depart="1853.73" departLane="best">
        <route edges="395456769#1 24509268 700440138 700440139 -378479743#6 -378479743#5 -378479743#4 -378479743#3 -378479743#2 -378479743#1 -378479743#0 -253272005 -214846345#3 -214846345#2 -214846345#1 -38115197#1 -38115197#0 -700440136 -56163443#3 -150041551#3 -4295817#3 -4295817#1 -4295817#0"/>
    </vehicle>
    <vehicle id="bus30" type="bus_bus" depart="1917.65" departLane="best">
        <route edges="1265069358#1 -378479743#6 -378479743#5 -378479743#4 -378479743#3 -378479743#2 -378479743#1 -378479743#0 -253272005 -214846345#3 -214846345#2 -214846345#1 -38115197#1 -38115197#0 -700440136 -56163443#3 -150041551#3 -4295817#3"/>
    </vehicle>
    <vehicle id="bus31" type="bus_bus" depart="1981.57" departLane="best" departSpeed="max">
        <route edges="150041565 700440130#0 700440130#1 700440128 700440129 1290085526#0 150041594#0 56163443#1 700440137 700440134 715913363#2 1290085525#0 1290085525#1 700440148 378479743#0 378479743#1 378479743#2 378479743#3 378479743#4 378479743#5 378479743#6 -1265069358#1 -1265069360#0"/>
    </vehicle>
    <vehicle id="bus32" type="bus_bus" depart="2045.50" departLane="best">
        <route edges="196656222#2 700440130#0 700440130#1 700440128 700440129 1290085526#0 150041594#0 56163443#1 700440137 700440134 715913363#2 1290085525#0 1290085525#1 700440148 378479743#0 378479743#1 378479743#2 378479743#3 378479743#4 378479743#5 378479743#6 700236092#0 700236092#1 700236093"/>
    </vehicle>
    <vehicle id="bus33" type="bus_bus" depart="2109.42" departLane="best">
        <route edges="-38115197#1 -38115197#0 -700440136 -56163443#3 -150041594#1 -1290085526#1 -700440129 -700440128 -700440130#1 -700440130#0 -196656222#2 -196656222#1 -196656222#0"/>
    </vehicle>
    <vehicle id="bus35" type="bus_bus" depart="2237.26" departLane="best">
        <route edges="624481020#3 624481020#4 689912267#0 689912267#1 214812786 378479740#1 -700440136 -56163443#3 -150041551#3 -150041551#1 -150041551#0 715835444#4 715835444#5 715835444#6"/>
    </vehicle>
    <vehicle id="bus37" type="bus_bus" depart="2365.10" departLane="best">
        <route edges="196656222#0 196656222#1 196656222#2 700440130#0 700440130#1 700440128 700440129 1290085526#0 150041594#0 56163443#1 700440137 700440134 116556686#1 -60263960 -51873805"/>
    </vehicle>
    <vehicle id="bus39" type="bus_bus" depart="2492.95" departLane="best" departSpeed="max">
        <route edges="43206315 53207959#0 53207959#1 53207959#3 150041593 196656222#0 196656222#1 196656222#2 700440130#0 700440130#1 700440128 700440129 1290085526#0 150041594#0 56163443#1 700440137 700440134 116556686#1 -60263960 -51873805"/>
    </vehicle>
    <vehicle id="bus40" type="bus_bus" depart="2556.87" departLane="best" departSpeed="max">
        <route edges="38115188 150041593 196656222#0 196656222#1 196656222#2 700440130#0 700440130#1 700440128 700440129 1290085526#0 150041594#0 56163443#1 700440137 700440134 715913363#2 1290085525#0 1290085525#1 700440148 378479743#0 378479743#1 378479743#2 378479743#3 378479743#4 378479743#5 378479743#6 700236092#0 700236092#1 700236093 44973978 506013711#1 4019053#2 -150032770#12 -150032770#11 -150032770#8 -150032770#7 -150032770#5 -150032770#4"/>
    </vehicle>
    <vehicle id="bus42" type="bus_bus" depart="2684.71" departLane="best">
        <route edges="4144040#2 4144040#3 4144040#4 700440148 700440131 506015829#1 506015832 700440133 -38115197#1 -38115197#0 -700440136 -56163443#3 -150041594#1 -1290085526#1 -700440129 -700440128 -700440130#1 -700440130#0 -196656222#2 -196656222#1 -196656222#0 -53207957"/>
    </vehicle>
    <vehicle id="bus43" type="bus_bus" depart="2748.63" departLane="best" departSpeed="max">
        <route edges="150041565 700440130#0 700440130#1 700440128 700440129 1290085526#0 150041594#0 56163443#1 700440137 700440134 214846345#1 214846345#2"/>
    </vehicle>
    <vehicle id="bus44" type="bus_bus" depart="2812.56" departLane="best" departSpeed="max">
        <route edges="150041565 700440130#0 700440130#1 700440128 700440129 1290085526#0 150041594#0 56163443#1 700440137 700440134 -38115197#1"/>
    </vehicle>
    <vehicle id="bus45" type="bus_bus" depart="2876.48" departLane="best">
        <route edges="395456769#0 395456769#1 24509268 700440138 700440139 -378479743#6 -378479743#5 -378479743#4 -378479743#3 -378479743#2 -378479743#1 -378479743#0 -253272005 -214846345#3 -214846345#2 -214846345#1 -38115197#1 -38115197#0 -700440136 -56163443#3 -150041594#1 -1290085526#1 -700440129 -700440128 -700440130#1 -700440130#0 -196656222#2 -196656222#1 -196656222#0 -53207957"/>
    </vehicle>
    <vehicle id="bus46" type="bus_bus" depart="2940.40" departLane="best">
        <route edges="700440128 700440129 1290085526#0 150041594#0 56163443#1 700440137 700440134 715913363#2 1290085525#0 1290085525#1 700440148 378479743#0 378479743#1 378479743#2 378479743#3 378479743#4 378479743#5 378479743#6 -1265069358#1"/>
    </vehicle>
    <vehicle id="bus48" type="bus_bus" depart="3068.24" departLane="best">
        <route edges="-182982119#1 56163443#1 700440137 700440134 715913363#2 1290085525#0 1290085525#1 700440148 378479743#0 378479743#1 378479743#2 378479743#3 378479743#4 378479743#5 378479743#6 700236092#0 700236092#1 700236093 44973978"/>
    </vehicle>
    <vehicle id="bus49" type="bus_bus" depart="3132.16" departLane="best">
        <route edges="378543233#2 378543233#3 395456769#1 24509268 700440138 700440139 -378479743#6 -378479743#5 -378479743#4 -378479743#3 -378479743#2 -378479743#1 -378479743#0 -253272005 -214846345#3 -214846345#2 -214846345#1 116556686#1 -60263960 715835444#1 715835444#2 715835444#3"/>
    </vehicle>
    <vehicle id="bus50" type="bus_bus" depart="3196.09" departLane="best">
        <route edges="700440129 1290085526#0 150041594#0 56163443#1 700440137 700440134 715913363#2 1290085525#0 1290085525#1 700440148 378479743#0 378479743#1 378479743#2 378479743#3 378479743#4 378479743#5 378479743#6 700236092#0 700236092#1 700236093 44973978 506013711#1 35574708#1 4212051"/>
    </vehicle>
    <vehicle id="bus51" type="bus_bus" depart="3260.01" departLane="best">
        <route edges="700440129 1290085526#0 150041594#0 56163443#1 700440137 700440134 715913363#2 1290085525#0 1290085525#1 700440148 378479743#0 378479743#1 378479743#2 378479743#3 378479743#4 378479743#5 378479743#6 700236092#0 700236092#1 700236093 44973978 506013711#1 35574708#1"/>
    </vehicle>
    <vehicle id="bus52" type="bus_bus" depart="3323.93" departLane="best">
        <route edges="-715835444#1 60263960 116556688 43135644#0 378479740#1 -700440136 -56163443#3 -150041594#1 -1290085526#1 -700440129 -700440128 -700440130#1 -700440130#0 -196656222#2 -196656222#1 -196656222#0 -53207957"/>
    </vehicle>
    <vehicle id="bus54" type="bus_bus" depart="3451.77" departLane="best">
        <route edges="150041551#1 150041551#2 56163443#1 700440137 700440134 715913363#2 1290085525#0 1290085525#1 700440148 378479743#0 378479743#1 378479743#2 378479743#3 378479743#4 378479743#5 378479743#6"/>
    </vehicle>
    <vehicle id="bus55" type="bus_bus" depart="3515.69" departLane="best">
        <route edges="150041551#2 56163443#1 700440137 700440134 715913363#2 1290085525#0 1290085525#1 700440148 378479743#0 378479743#1 378479743#2 378479743#3 378479743#4 378479743#5 378479743#6 700236092#0 700236092#1 700236093 44973978 506013711#1 35574708#1 4212051"/>
    </vehicle>
    <vehicle id="bus56" type="bus_bus" depart="3579.62" departLane="best" departSpeed="max">
        <route edges="150041565 700440130#0 700440130#1 700440128 700440129 1290085526#0 150041594#0 56163443#1 700440137 700440134 715913363#2 1290085525#0 1290085525#1 700440148 378479743#0 378479743#1 378479743#2 378479743#3 378479743#4 378479743#5 378479743#6 700236092#0 700236092#1 700236093 44973978 506013711#1 4019053#2 -150032770#12 -150032770#11 -150032770#8 -150032770#7 -150032770#5 -150032770#4 -150032770#3 -150032770#2 -150032770#1 -150032770#0"/>
    </vehicle>
</routes>
