<?xml version="1.0" encoding="UTF-8"?>

<!-- generated on 2024-10-08 17:27:33.104608 by randomTrips.py UNKNOWN
<configuration>
    <net-file value="osm.net.xml.gz"/>
    <output-trip-file value="osm.bicycle.trips.xml"/>
    <route-file value="osm.bicycle.rou.xml"/>
    <prefix value="bike"/>
    <trip-attributes value="departLane=&quot;best&quot;"/>
    <fringe-start-attributes value="departSpeed=&quot;max&quot;"/>
    <vehicle-class value="bicycle"/>
    <fringe-factor value="2"/>
    <vclass value="bicycle"/>
    <via-edge-types value="highway.motorway,highway.motorway_link,highway.trunk_link,highway.primary_link,highway.secondary_link,highway.tertiary_link"/>
    <max-distance value="8000.0"/>
    <remove-loops value="True"/>
    <validate value="True"/>
    <insertion-density value="6.0"/>
</configuration>
-->

<!-- generated on 2024-10-08 17:27:33 by Eclipse SUMO duarouter Version 1.20.0
<configuration xmlns:xsi="http://www.w3.org/2001/XMLSchema-instance" xsi:noNamespaceSchemaLocation="http://sumo.dlr.de/xsd/duarouterConfiguration.xsd">

    <input>
        <net-file value="osm.net.xml.gz"/>
        <route-files value="osm.bicycle.trips.xml"/>
    </input>

    <output>
        <output-file value="osm.bicycle.rou.xml"/>
        <alternatives-output value="NUL"/>
    </output>

    <processing>
        <remove-loops value="true"/>
    </processing>

    <time>
        <begin value="0.0"/>
        <end value="3600.0"/>
    </time>

    <report>
        <no-warnings value="true"/>
        <ignore-errors value="true"/>
        <no-step-log value="true"/>
    </report>

</configuration>
-->

<routes xmlns:xsi="http://www.w3.org/2001/XMLSchema-instance" xsi:noNamespaceSchemaLocation="http://sumo.dlr.de/xsd/routes_file.xsd">
    <vType id="bike_bicycle" vClass="bicycle"/>
    <vehicle id="bike0" type="bike_bicycle" depart="0.00" departLane="best" departSpeed="max">
        <route edges="26168565 308284295 150032770#4 150032770#5 327864903#0 327864903#1 218848625#1 539841923#0 539841923#1 -23015831 -75392301#1 -75392301#0 378479743#2 378479743#3 378479743#4 378479743#5 378479743#6 -1265069358#1 -1265069360#0"/>
    </vehicle>
    <vehicle id="bike1" type="bike_bicycle" depart="23.60" departLane="best">
        <route edges="-4295833#3 -4295833#2 -4295833#1 -4295833#0 214812786 715913363#2 1290085525#0 1290085525#1 700440148 378479743#0 378479743#1 378479743#2 365216934 -365216934 -378479743#2 -378479743#1 -35098345"/>
    </vehicle>
    <vehicle id="bike2" type="bike_bicycle" depart="47.20" departLane="best">
        <route edges="395456769#1 24509268 700440138 700440139 -378479743#6 -378479743#5 -378479743#4 -378479743#3 -378479743#2 -378479743#1 -378479743#0 700440131 506015829#1 506015832 700440133 214812788#2 73372559 4295833#0 4295833#1 285278284#0 285278284#1"/>
    </vehicle>
    <vehicle id="bike3" type="bike_bicycle" depart="70.80" departLane="best">
        <route edges="689912267#0 689912267#1 214812786 378479740#1 -700440136 -56163443#3 -150041594#1 150041624#0 150041624#1 150041624#2 150041624#3"/>
    </vehicle>
    <vehicle id="bike4" type="bike_bicycle" depart="94.40" departLane="best" departSpeed="max">
        <route edges="-750168166#1 -750168166#0 -715835444#4 -715835444#3 -715835444#2 -715835444#1 -4195580#2 -4195580#1 -4195580#0 4144040#1 4144040#2 -484022097 -4195610#2 -4195610#0 23015831 -539841923#1 -539841923#0 -1287285290#2"/>
    </vehicle>
    <vehicle id="bike5" type="bike_bicycle" depart="118.00" departLane="best">
        <route edges="-29895520#2 1185258340#0 1153038902#2 1153038902#4 -715835444#2 -715835444#1 -4195580#2 -4195580#1 -4195580#0 4144040#1 4144040#2 -484022097 -4195610#2 13858853"/>
    </vehicle>
    <vehicle id="bike6" type="bike_bicycle" depart="141.60" departLane="best" departSpeed="max">
        <route edges="-1185258343 1185258336#0 1185258336#2 1185258339 -29895520#0 715802321 70205228#2 29895517"/>
    </vehicle>
    <vehicle id="bike7" type="bike_bicycle" depart="165.20" departLane="best">
        <route edges="28247399 28247397#1 28247401 624481020#4 689912267#0 689912267#1 214812786 378479740#1 -700440136 -56163443#3 -150041594#1 -1290085526#1 -700440129 -700440128 -700440130#1 -700440130#0 150041576#1"/>
    </vehicle>
    <vehicle id="bike8" type="bike_bicycle" depart="188.80" departLane="best">
        <route edges="-29895520#3 -29895520#2 -29895520#1 -29895520#0 -29895519#2 -886547965#0 886547965#0 -29895519#1 700440137 700440134 214812788#2"/>
    </vehicle>
    <vehicle id="bike9" type="bike_bicycle" depart="212.40" departLane="best">
        <route edges="-881694399 -182982119#1 -150041594#1 150041624#0 115485617 -115485620#0"/>
    </vehicle>
    <vehicle id="bike10" type="bike_bicycle" depart="236.00" departLane="best">
        <route edges="150041594#0 56163443#1 700440137 700440134 715913363#2 1290085525#0 1290085525#1 700440148 378479743#0 378479743#1 75392301#0 75392301#1 23015831 -539841923#1 -539841923#0 -218848625#1 -327864903#1 -327864903#0"/>
    </vehicle>
    <vehicle id="bike11" type="bike_bicycle" depart="259.60" departLane="best">
        <route edges="-563630394#0 -563390357#0 -23508142#3 -23508142#1 -23508142#0 23508141#1 -715835444#1 -715910744#1 -715910744#0 -255729778"/>
    </vehicle>
    <vehicle id="bike12" type="bike_bicycle" depart="283.20" departLane="best" departSpeed="max">
        <route edges="77706449 -572523427"/>
    </vehicle>
    <vehicle id="bike13" type="bike_bicycle" depart="306.80" departLane="best">
        <route edges="-150041624#3 -150041699#2"/>
    </vehicle>
    <vehicle id="bike16" type="bike_bicycle" depart="377.60" departLane="best">
        <route edges="150041551#2 56163443#1 700440137 700440134 715913363#2 1290085525#0 1290085525#1 700440148 378479743#0 378479743#1 378479743#2 378479743#3 378479743#4 378479743#5 378479743#6 700236092#0 700236092#1 700236093 44973978 506013711#1 35574708#1 797259709#0 797259709#1"/>
    </vehicle>
    <vehicle id="bike17" type="bike_bicycle" depart="401.20" departLane="best">
        <route edges="-700440130#1 -700440130#0 150041699#2 -150041624#2 -150041624#1"/>
    </vehicle>
    <vehicle id="bike18" type="bike_bicycle" depart="424.80" departLane="best">
        <route edges="53207959#1 53207959#3 150041593 196656222#0 196656222#1 196656222#2 700440130#0 700440130#1 700440128 4295817#0 -23508224"/>
    </vehicle>
    <vehicle id="bike19" type="bike_bicycle" depart="448.40" departLane="best">
        <route edges="59591192#1 59591192#2 378479740#1 -700440136 -56163443#3 182982119#0"/>
    </vehicle>
    <vehicle id="bike20" type="bike_bicycle" depart="472.00" departLane="best" departSpeed="max">
        <route edges="359458208#0 53207959#3 150041593 196656222#0 196656222#1 196656222#2 700440130#0 700440130#1 700440128 700440129 1290085526#0 150041594#0 56163443#1 700440137 700440134 715913363#2 1290085525#0 1290085525#1 700440148 378479743#0 378479743#1 378479743#2 378479743#3 378479743#4 378479743#5 378479743#6 700236092#0 700236092#1 700236093 44973978 506013711#1 -149518804#0"/>
    </vehicle>
    <vehicle id="bike22" type="bike_bicycle" depart="519.20" departLane="best">
        <route edges="-150041551#1 -150041551#0 -715835444#3 -715835444#2 -715835444#1 -4195580#2 -4195580#1 -4195580#0 4144040#1 4144040#2 -484022097 -4195610#2 -4195610#0 -75392301#1 -75392301#0 -378479743#1 -378479743#0"/>
    </vehicle>
    <vehicle id="bike23" type="bike_bicycle" depart="542.80" departLane="best">
        <route edges="-150041682 23248109#1 -378479743#3 -378479743#2 -378479743#1 -378479743#0 700440131 506015829#1 506015832 59591192#1 59591192#2 59591192#5 519402126 59591191 378491236 4305021#0 4305021#1 -4295833#4"/>
    </vehicle>
    <vehicle id="bike24" type="bike_bicycle" depart="566.40" departLane="best">
        <route edges="257510648 257510647#1 253230762 700440138 700440139 -378479743#6 -378479743#5 -378479743#4 -378479743#3 -378479743#2 -378479743#1 -378479743#0 253230759#0 253230759#1 -1244524929 -4144040#4 -4144040#3 -4144040#2 -4144040#1 4195580#0 -640167405"/>
    </vehicle>
    <vehicle id="bike25" type="bike_bicycle" depart="590.00" departLane="best" departSpeed="max">
        <route edges="-700236088 150032770#3 -308284296"/>
    </vehicle>
    <vehicle id="bike26" type="bike_bicycle" depart="613.60" departLane="best">
        <route edges="4295817#1 4295817#3 150041551#2 56163443#1 700440137 700440134 715913363#2"/>
    </vehicle>
    <vehicle id="bike27" type="bike_bicycle" depart="637.20" departLane="best">
        <route edges="28247397#1 28247401 624481020#4 689912267#0 689912267#1 214812786 116556686#1 -60263960 715835444#1 -23508141#1 -23508141#0"/>
    </vehicle>
    <vehicle id="bike29" type="bike_bicycle" depart="684.40" departLane="best" departSpeed="max">
        <route edges="-24507771#3 -24507771#2 -24507771#1 -24507771#0 -1287285290#3 539841923#0 539841923#1 -23015831 -75392301#1 -75392301#0 -378479743#1 -378479743#0 700440131 506015829#1 506015832 59591192#1 59591192#2 378479740#1 -700440136 -56163443#3 -150041594#1 -1290085526#1 -700440129 -700440128"/>
    </vehicle>
    <vehicle id="bike30" type="bike_bicycle" depart="708.00" departLane="best">
        <route edges="984768175 1287285290#0 1287285290#1 1287285290#2 539841923#0 539841923#1 -23015831 4195610#0 4195610#2 484022097 -4144040#2 -4144040#1 4195580#0 4195580#1 4195580#2 -715910744#1 -715910744#0 -255729778"/>
    </vehicle>
    <vehicle id="bike31" type="bike_bicycle" depart="731.60" departLane="best">
        <route edges="150041636#2 519402125#0 56163443#1 29895519#1"/>
    </vehicle>
    <vehicle id="bike32" type="bike_bicycle" depart="755.20" departLane="best">
        <route edges="56163443#1 700440137 700440134 214812788#2 73372559 4295833#0 4295833#1 285278284#0 285278284#1 458284289"/>
    </vehicle>
    <vehicle id="bike33" type="bike_bicycle" depart="778.80" departLane="best">
        <route edges="-35771743#0 150041636#2 519402125#0 -150041594#1 -1290085526#1"/>
    </vehicle>
    <vehicle id="bike34" type="bike_bicycle" depart="802.40" departLane="best">
        <route edges="539841923#0 539841923#1 -23015831 4195610#0 4195610#2 484022097 -4144040#2 -4144040#1 4195580#0 4195580#1 4195580#2 715835444#1 715835444#2 715835444#3 150041551#0 150041551#1 -4295817#3 -4295817#1 -4295817#0"/>
    </vehicle>
    <vehicle id="bike35" type="bike_bicycle" depart="826.00" departLane="best">
        <route edges="-29895517 -70205228#2 -70205228#1 -70205228#0 -23508141#2 -715835444#1 -4195580#2 -4195580#1 -4195580#0 4144040#1 4144040#2 -484022097 -4195610#2 -4195610#0 23015831 -539841923#1 -539841923#0 -218848625#1 -218848625#0 -13858859#2 -13858859#1 749484710"/>
    </vehicle>
    <vehicle id="bike37" type="bike_bicycle" depart="873.21" departLane="best">
        <route edges="28247400#2 28247401 624481020#4 689912267#0 689912267#1 214812786 378479740#1 -700440136 29895519#1 886547965#1 -886547965#1 29895519#2 29895520#0 -1185258339 -1185258336#2 -1185258336#0 1153038902#4 -715835444#2"/>
    </vehicle>
    <vehicle id="bike38" type="bike_bicycle" depart="896.81" departLane="best">
        <route edges="700440133 378479740#1 -700440136 -56163443#3 -150041594#1 150041624#0 115485617 115485620#1"/>
    </vehicle>
    <vehicle id="bike39" type="bike_bicycle" depart="920.41" departLane="best">
        <route edges="-4209642 -1244524929 -4144040#4 -4144040#3 -484022097 -4195610#2 -409784476"/>
    </vehicle>
    <vehicle id="bike40" type="bike_bicycle" depart="944.01" departLane="best">
        <route edges="-150041689 -43206316 -150041624#3 -150041624#2 -150041624#1 -150041624#0 150041594#0 56163443#1 700440137 700440134 715913363#2 1290085525#0 1290085525#1 -4144040#4 -4144040#3 -484022097 -4195610#2 -4195610#0"/>
    </vehicle>
    <vehicle id="bike41" type="bike_bicycle" depart="967.61" departLane="best">
        <route edges="22911004 -150041682 23248109#1 -378479743#3 -378479743#2 -378479743#1 -378479743#0 700440131 506015829#1 506015832 59591192#1 59591192#2 378479740#1 -700440136 -56163443#3 -150041594#1 150041624#0 150041624#1 150041624#2 -150041699#2 700440130#0 700440130#1"/>
    </vehicle>
    <vehicle id="bike42" type="bike_bicycle" depart="991.21" departLane="best">
        <route edges="-715910744#0 -255729778 -150041716#4 -150041716#3 700440137 700440134 715911183#5 715911183#6 -689912267#0 -624481020#4 -624481020#3 -624481020#2 -334960656"/>
    </vehicle>
    <vehicle id="bike43" type="bike_bicycle" depart="1014.81" departLane="best" departSpeed="max">
        <route edges="987109590 987109589#1 689756683 -23248118 23248109#0 23248109#1 -378479743#3 -378479743#2 -378479743#1 -35098345 35098345 378479743#1 75392301#0 75392301#1 23015831 -539841923#1 -539841923#0 -218848625#1 -218848625#0 -13858859#2 -13858859#1"/>
    </vehicle>
    <vehicle id="bike44" type="bike_bicycle" depart="1038.41" departLane="best">
        <route edges="-150041624#2 -150041624#1 -150041624#0 150041594#0 56163443#1 700440137 700440134 715913363#2 1290085525#0 1290085525#1 700440148 378479743#0 378479743#1 378479743#2 378479743#3 378479743#4 378479743#5 378479743#6 700236092#0 700236092#1 700236093 44973978 506013711#1 149518804#2"/>
    </vehicle>
    <vehicle id="bike45" type="bike_bicycle" depart="1062.01" departLane="best">
        <route edges="150041716#2 700440137 700440134 715913363#2 1290085525#0 1290085525#1 700440148 378479743#0 378479743#1 75392301#0 75392301#1 23015831 -539841923#1 -539841923#0 1287285290#3 1287285290#4 24507771#1 24507771#2"/>
    </vehicle>
    <vehicle id="bike47" type="bike_bicycle" depart="1109.21" departLane="best">
        <route edges="-150032770#11 -150032770#8 -150032770#7 327864903#0 327864903#1 218848625#1 539841923#0 539841923#1 -23015831 -75392301#1 -75392301#0 -378479743#1 -378479743#0 700440131 506015829#1 506015832 59591192#1 59591192#2 378479740#1 -700440136 -56163443#3 -150041594#1 -1290085526#1 -700440129"/>
    </vehicle>
    <vehicle id="bike48" type="bike_bicycle" depart="1132.81" departLane="best">
        <route edges="987109589#1 689756683 -23248118 23248109#0 23248109#1 -378479743#3 -378479743#2 -378479743#1 -35098345 35098345 378479743#1 75392301#0 75392301#1 23015831 -539841923#1 -539841923#0 -218848625#1 -218848625#0 -13858859#2 -13858859#1 -13858859#0 150032770#2"/>
    </vehicle>
    <vehicle id="bike49" type="bike_bicycle" depart="1156.41" departLane="best" departSpeed="max">
        <route edges="874106321 -4295833#4 -4295833#3 -4295833#2 -4295833#1 -4295833#0 214812786 59591192#5"/>
    </vehicle>
    <vehicle id="bike50" type="bike_bicycle" depart="1180.01" departLane="best">
        <route edges="-1185258336#3 1185258339 -29895520#0 -29895519#2 -886547965#0 886547965#0 -29895519#1 700440137 700440134 715913363#2 1290085525#0 1290085525#1 700440148 378479743#0 378479743#1 378479743#2 378479743#3 378479743#4 378479743#5 378479743#6"/>
    </vehicle>
    <vehicle id="bike51" type="bike_bicycle" depart="1203.61" departLane="best">
        <route edges="29895520#1 1185258340#0 1153038902#2 1153038902#4 -715835444#2 -715835444#1 -4195580#2 -4195580#1 -4195580#0 4144040#1 4144040#2 -484022097 -4195610#2 -4195610#0 23015831 -539841923#1 -539841923#0 -218848625#1 -327864903#1 -327864903#0 150032770#7 150032770#8"/>
    </vehicle>
    <vehicle id="bike53" type="bike_bicycle" depart="1250.81" departLane="best">
        <route edges="-150041716#3 -56163443#3 182982119#0 881694399 -957138676#0"/>
    </vehicle>
    <vehicle id="bike54" type="bike_bicycle" depart="1274.41" departLane="best">
        <route edges="987109589#1 689756683 -23248118 23248109#0 23248109#1 -378479743#3 -378479743#2 -378479743#1 -378479743#0 700440131 506015829#1 506015832 59591192#1 59591192#2 378479740#1 -700440136 -56163443#3 -150041551#3 -4295817#3 750168165"/>
    </vehicle>
    <vehicle id="bike55" type="bike_bicycle" depart="1298.01" departLane="best">
        <route edges="-624481020#1 465884704 -23599727#1 -23599727#0 253230759#1 -1244524929 -4144040#4 -4144040#3 -484022097 -4195610#2 -4195610#0"/>
    </vehicle>
    <vehicle id="bike56" type="bike_bicycle" depart="1321.61" departLane="best">
        <route edges="13755982 -150041689 -43206316 -150041624#3 -150041624#2 -150041624#1 -150041624#0 150041594#0 56163443#1 700440137 700440134 715911183#5 715911183#6 -689912267#0 -624481020#4 -28247401 -28247400#2"/>
    </vehicle>
    <vehicle id="bike57" type="bike_bicycle" depart="1345.21" departLane="best">
        <route edges="700440130#1 700440128 700440129 1290085526#0 150041594#0 56163443#1 700440137 700440134 715911183#5 715911183#6 -689912267#0 -624481020#4"/>
    </vehicle>
    <vehicle id="bike59" type="bike_bicycle" depart="1392.41" departLane="best">
        <route edges="-23508142#1 -23508142#0 23508141#1 -715835444#1 -4195580#2 -4195580#1 -4195580#0 4144040#1 4144040#2 -484022097 -4195610#2 -4195610#0 23015831 -539841923#1 -539841923#0 1287285290#3 1287285290#4 24507771#1 24507771#2"/>
    </vehicle>
    <vehicle id="bike60" type="bike_bicycle" depart="1416.01" departLane="best">
        <route edges="4295817#1 4295817#3 -150041551#1 -150041551#0"/>
    </vehicle>
    <vehicle id="bike61" type="bike_bicycle" depart="1439.61" departLane="best" departSpeed="max">
        <route edges="43206315 53207959#0 53207959#1 53207959#3 150041593 196656222#0 196656222#1 196656222#2 700440130#0 700440130#1 700440128 700440129 1290085526#0 150041594#0 56163443#1 700440137 700440134 715913363#2 1290085525#0 1290085525#1 700440148 378479743#0 378479743#1 75392301#0 75392301#1 23015831 -539841923#1 -539841923#0 -218848625#1 -218848625#0 -13858859#2 -13858859#1 -13858859#0 150032770#2 150032770#3"/>
    </vehicle>
    <vehicle id="bike62" type="bike_bicycle" depart="1463.21" departLane="best">
        <route edges="-1153038902#0 -29895520#2 -29895520#1 -29895520#0 -29895519#2 -886547965#0 886547965#0 -29895519#1 -56163443#3"/>
    </vehicle>
    <vehicle id="bike63" type="bike_bicycle" depart="1486.81" departLane="best">
        <route edges="1185258339 -29895520#0 715802321 70205228#2 29895517 150041716#4 255729778 715910744#0"/>
    </vehicle>
    <vehicle id="bike64" type="bike_bicycle" depart="1510.41" departLane="best">
        <route edges="624481020#3 624481020#4 689912267#0 689912267#1 214812786 378479740#1 -700440136 -56163443#3"/>
    </vehicle>
    <vehicle id="bike65" type="bike_bicycle" depart="1534.01" departLane="best">
        <route edges="-494297577#0 56163443#1 700440137 700440134 715913363#2 1290085525#0 1290085525#1 700440148 378479743#0 378479743#1 75392301#0 75392301#1 23015831 -539841923#1 -539841923#0 -218848625#1 -327864903#1 -327864903#0 -150032770#5 -150032770#4 -150032770#3 -150032770#2"/>
    </vehicle>
    <vehicle id="bike66" type="bike_bicycle" depart="1557.61" departLane="best">
        <route edges="624481020#3 624481020#4 689912267#0 689912267#1 -689912267#1 -715911183#6 -715911183#5 715913363#2 1290085525#0 749484712#1"/>
    </vehicle>
    <vehicle id="bike67" type="bike_bicycle" depart="1581.21" departLane="best">
        <route edges="-150041576#1 700440130#0 700440130#1 700440128 700440129 1290085526#0 150041594#0 56163443#1 700440137 700440134 715913363#2 1290085525#0 1290085525#1 700440148 378479743#0 378479743#1 378479743#2 378479743#3 378479743#4 378479743#5 378479743#6 -1265069358#1"/>
    </vehicle>
    <vehicle id="bike68" type="bike_bicycle" depart="1604.81" departLane="best">
        <route edges="-150032770#3 -150032770#2 13858859#0 13858859#1 13858859#2 874725445 218848625#1 539841923#0 539841923#1 -23015831 -75392301#1 -75392301#0 -378479743#1 -378479743#0 700440131 506015829#1 506015832 700440133 214812788#2 73372559 4295833#0 4295833#1 4295833#2"/>
    </vehicle>
    <vehicle id="bike69" type="bike_bicycle" depart="1628.41" departLane="best">
        <route edges="-4295833#0 214812786 715913363#2 1290085525#0 1290085525#1 700440148 378479743#0 378479743#1 378479743#2 378479743#3 378479743#4 378479743#5 378479743#6 700236092#0 700236092#1 700236093 44973978 506013711#1 35574708#1 23401995#3"/>
    </vehicle>
    <vehicle id="bike70" type="bike_bicycle" depart="1652.01" departLane="best">
        <route edges="-1185258337 1185258338#0 -1185258340#0 29895520#2 29895520#3 -23101679#0 150041551#1 150041551#2 -150041594#1 150041624#0"/>
    </vehicle>
    <vehicle id="bike71" type="bike_bicycle" depart="1675.61" departLane="best">
        <route edges="-4209642 684761787#0"/>
    </vehicle>
    <vehicle id="bike72" type="bike_bicycle" depart="1699.21" departLane="best" departSpeed="max">
        <route edges="-750168166#1 -750168166#0 -715835444#4 -715835444#3 -715835444#2 -715835444#1 -4195580#2 -4195580#1 -4195580#0 4144040#1 4144040#2 -484022097 -4195610#2 -4195610#0 23015831 -539841923#1 -539841923#0 -218848625#1 -327864903#1 -327864903#0 150032770#7 150032770#8 -572523427 -319910925"/>
    </vehicle>
    <vehicle id="bike74" type="bike_bicycle" depart="1746.41" departLane="best" departSpeed="max">
        <route edges="-285188052#1 -285188052#0 23508141#0 23508141#1 -715835444#1 -4195580#2 -4195580#1 -4195580#0 4144040#1 4144040#2 -484022097 -4195610#2 -4195610#0 23015831 -539841923#1"/>
    </vehicle>
    <vehicle id="bike75" type="bike_bicycle" depart="1770.01" departLane="best">
        <route edges="987109589#0 987109589#1 689756683 -23248118 23248109#0 23248109#1 -378479743#3 -378479743#2 -378479743#1 -378479743#0 700440131 506015829#1 506015832 59591192#1 59591192#2 59591192#5 519402126 59591191 378491236 150041636#0 -28230108"/>
    </vehicle>
    <vehicle id="bike76" type="bike_bicycle" depart="1793.61" departLane="best">
        <route edges="-797259709#2 -797259709#1 -797259709#0 797259708#2 -150032770#12 -150032770#11 -150032770#8 -150032770#7 327864903#0 327864903#1 218848625#1 539841923#0 539841923#1 -23015831 -75392301#1 -75392301#0 -378479743#1 -378479743#0 700440131 506015829#1 506015832 59591192#1 59591192#2 378479740#1 -700440136 -56163443#3 -150041594#1 -1290085526#1 -700440129 -700440128 -700440130#1 -700440130#0 -196656222#2 149518798"/>
    </vehicle>
    <vehicle id="bike77" type="bike_bicycle" depart="1817.21" departLane="best">
        <route edges="874725445 218848625#1 539841923#0 539841923#1 -23015831 -75392301#1 -75392301#0 -378479743#1 -378479743#0 700440131 506015829#1 506015832 59591192#1 59591192#2 59591192#5 519402126 59591191 378491236 150041636#0 150041636#1 150041661"/>
    </vehicle>
    <vehicle id="bike79" type="bike_bicycle" depart="1864.41" departLane="best">
        <route edges="-35771743#0 -150041636#1 -150041636#0 4305021#0 4305021#1 -4295833#4 -4295833#3 -4295833#2 -4295833#1 -4295833#0 -689912267#1 -689912267#0 -624481020#4 -624481020#3 -624481020#2 -334960656"/>
    </vehicle>
    <vehicle id="bike81" type="bike_bicycle" depart="1911.61" departLane="best">
        <route edges="-35771743#0 150041636#2 519402125#0 56163443#1 700440137"/>
    </vehicle>
    <vehicle id="bike82" type="bike_bicycle" depart="1935.21" departLane="best">
        <route edges="59591192#0 59591192#1 59591192#2 378479740#1 -700440136 -56163443#3 -150041551#3 -150041551#1"/>
    </vehicle>
    <vehicle id="bike83" type="bike_bicycle" depart="1958.81" departLane="best">
        <route edges="378479743#0 378479743#1 75392301#0 285188051#0 285188051#1"/>
    </vehicle>
    <vehicle id="bike84" type="bike_bicycle" depart="1982.41" departLane="best">
        <route edges="-29895519#2 -886547965#0 886547965#0 -29895519#1 700440137 700440134 715913363#2 1290085525#0 1290085525#1 700440148 378479743#0 378479743#1 378479743#2 378479743#3 378479743#4 378479743#5 378479743#6 700236092#0 700236092#1 700236093 44973978 506013711#1 35574708#1 797259709#0 797259709#1 797259709#2 -23401995#5"/>
    </vehicle>
    <vehicle id="bike85" type="bike_bicycle" depart="2006.01" departLane="best">
        <route edges="-715835444#4 150041551#0 150041551#1 150041551#2 150041716#0 150041716#1"/>
    </vehicle>
    <vehicle id="bike86" type="bike_bicycle" depart="2029.61" departLane="best">
        <route edges="-1185258336#2 -1185258336#0 1153038902#4 -715835444#2 -715835444#1 -4195580#2 -4195580#1 -4195580#0 4144040#1 4144040#2 -484022097 -4195610#2 13858853 47492539"/>
    </vehicle>
    <vehicle id="bike87" type="bike_bicycle" depart="2053.21" departLane="best">
        <route edges="494297577#1 150041624#0 -150041624#0 150041594#0 56163443#1 700440137 700440134 214812788#2 73372559 4295833#0 4295833#1 285278284#0"/>
    </vehicle>
    <vehicle id="bike88" type="bike_bicycle" depart="2076.81" departLane="best" departSpeed="max">
        <route edges="-150041636#2 150041661 957138676#0 -881694399"/>
    </vehicle>
    <vehicle id="bike89" type="bike_bicycle" depart="2100.41" departLane="best" departSpeed="max">
        <route edges="-750168166#1 -750168166#0 -715835444#4 -715835444#3 -1153038902#4 1185258336#0 1185258336#2 1185258336#3"/>
    </vehicle>
    <vehicle id="bike90" type="bike_bicycle" depart="2124.01" departLane="best" departSpeed="max">
        <route edges="38115188 150041593 196656222#0 196656222#1 196656222#2 700440130#0 700440130#1 700440128 4295817#0 4295817#1 4295817#3 -150041551#1 -150041551#0 -715835444#3 -715835444#2 -23508141#1 -23508141#0 285188052#0 285188052#1"/>
    </vehicle>
    <vehicle id="bike91" type="bike_bicycle" depart="2147.61" departLane="best">
        <route edges="886547966 -150041716#1 -150041716#0"/>
    </vehicle>
    <vehicle id="bike92" type="bike_bicycle" depart="2171.21" departLane="best">
        <route edges="715911183#0 715913363#2 1290085525#0 1290085525#1 -4144040#4 -585579893"/>
    </vehicle>
    <vehicle id="bike93" type="bike_bicycle" depart="2194.81" departLane="best">
        <route edges="59591192#1 59591192#2 -715911183#0 -148061769 -4195580#2 -4195580#1 -4195580#0 -4144040#0"/>
    </vehicle>
    <vehicle id="bike94" type="bike_bicycle" depart="2218.41" departLane="best" departSpeed="max">
        <route edges="-285156957 -4195580#1 -4195580#0 4144040#1 4144040#2 -484022097 -4195610#2 -4195610#0 23015831 -539841923#1 -539841923#0 -218848625#1 -327864903#1 -327864903#0 150032770#7 150032770#8 150032770#11 150032770#12 103958941#0"/>
    </vehicle>
    <vehicle id="bike95" type="bike_bicycle" depart="2242.01" departLane="best" departSpeed="max">
        <route edges="-750168166#1 -750168166#0 -715835444#4 150041551#0 150041551#1 150041551#2 56163443#1 700440137 700440134 59591192#5 519402126 59591191 378491236 4305021#0 4305021#1 -4295833#4"/>
    </vehicle>
    <vehicle id="bike96" type="bike_bicycle" depart="2265.61" departLane="best">
        <route edges="-4144040#1 4195580#0 4195580#1 4195580#2 715835444#1 715835444#2 715835444#3 715835444#4"/>
    </vehicle>
    <vehicle id="bike97" type="bike_bicycle" depart="2289.21" departLane="best" departSpeed="max">
        <route edges="-886547965#1 29895519#2 715802321 -70205228#1 -70205228#0 -23508141#2 -715835444#1 60263960"/>
    </vehicle>
    <vehicle id="bike98" type="bike_bicycle" depart="2312.81" departLane="best">
        <route edges="-150041624#2 -150041624#1 -150041624#0 150041594#0 56163443#1 700440137 700440134 715913363#2 1290085525#0 1290085525#1 700440148 378479743#0 378479743#1 75392301#0 75392301#1 23015831 -539841923#1 -539841923#0 -218848625#1 -218848625#0 -13858859#2 -13858859#1 -13858859#0 -150032770#1 -150032770#0"/>
    </vehicle>
    <vehicle id="bike99" type="bike_bicycle" depart="2336.41" departLane="best" departSpeed="max">
        <route edges="987109590 987109589#1 689756683 -23248118 23248109#0 23248109#1 -378479743#3 -378479743#2 -378479743#1 -378479743#0 700440131 506015829#1 506015832 700440133 -715911183#0 -148061769 715835444#1 -23508141#1 23508142#0 23508142#1 23508142#2 563390357#0 563390357#2"/>
    </vehicle>
    <vehicle id="bike100" type="bike_bicycle" depart="2360.01" departLane="best" departSpeed="max">
        <route edges="806364424 327864903#0 327864903#1 218848625#1 539841923#0 539841923#1 -23015831 4195610#0 4195610#2 484022097 -4144040#2 -4144040#1 4195580#0 4195580#1 4195580#2 715835444#1 715835444#2 715835444#3 715835444#4 715835444#5 715835444#6"/>
    </vehicle>
    <vehicle id="bike101" type="bike_bicycle" depart="2383.61" departLane="best">
        <route edges="-563630394#0 -563390357#0 -23508142#3 -23508142#1 -23508142#0 23508141#1 -715835444#1 60263960 116556688 43135644#0 715913363#2 1290085525#0 1290085525#1 700440148 378479743#0 378479743#1 378479743#2 378479743#3 378479743#4 378479743#5 378479743#6 700236092#0 700236092#1 700236093 44973978 506013711#1 35574708#1 797259709#0 797259709#1 797259709#2 -26730977#4"/>
    </vehicle>
    <vehicle id="bike102" type="bike_bicycle" depart="2407.21" departLane="best" departSpeed="max">
        <route edges="1265069359 254075881#1 449551311 44973978 506013711#1 4019053#2 -150032770#12 -150032770#11 -572523427 -319910925"/>
    </vehicle>
    <vehicle id="bike103" type="bike_bicycle" depart="2430.81" departLane="best">
        <route edges="715910744#1 -4195580#2 -4195580#1 -4195580#0 4144040#1 4144040#2 -484022097 -4195610#2 -4195610#0 23015831 -539841923#1 -539841923#0 -218848625#1 -327864903#1 -327864903#0 -150032770#5 -150032770#4 -150032770#3 -150032770#2"/>
    </vehicle>
    <vehicle id="bike104" type="bike_bicycle" depart="2454.41" departLane="best">
        <route edges="-700440130#1 -700440130#0 150041699#2 -150041624#2 -150041624#1 -150041624#0 150041594#0 56163443#1 29895519#1 886547965#1 886404164#0 886404164#1 886547966"/>
    </vehicle>
    <vehicle id="bike105" type="bike_bicycle" depart="2478.01" departLane="best">
        <route edges="-4295817#0 700440129 1290085526#0 150041594#0 56163443#1 700440137 700440134 715913363#2 1290085525#0 1290085525#1 -4144040#4 -4144040#3 -484022097 -4195610#2 13858853 47492539"/>
    </vehicle>
    <vehicle id="bike106" type="bike_bicycle" depart="2501.61" departLane="best">
        <route edges="103958941#0 797259709#0 797259709#1 797259709#2"/>
    </vehicle>