<?xml version="1.0" encoding="UTF-8"?>

<!-- generated on 2024-10-08 17:27:34.948404 by randomTrips.py UNKNOWN
<configuration>
    <net-file value="osm.net.xml.gz"/>
    <output-trip-file value="osm.truck.trips.xml"/>
    <route-file value="osm.truck.rou.xml"/>
    <prefix value="truck"/>
    <trip-attributes value="departLane=&quot;best&quot;"/>
    <fringe-start-attributes value="departSpeed=&quot;max&quot;"/>
    <vehicle-class value="truck"/>
    <fringe-factor value="5"/>
    <vclass value="truck"/>
    <via-edge-types value="highway.motorway,highway.motorway_link,highway.trunk_link,highway.primary_link,highway.secondary_link,highway.tertiary_link"/>
    <min-distance value="600.0"/>
    <min-distance.fringe value="10.0"/>
    <remove-loops value="True"/>
    <validate value="True"/>
    <insertion-density value="8.0"/>
</configuration>
-->

<!-- generated on 2024-10-08 17:27:34 by Eclipse SUMO duarouter Version 1.20.0
<configuration xmlns:xsi="http://www.w3.org/2001/XMLSchema-instance" xsi:noNamespaceSchemaLocation="http://sumo.dlr.de/xsd/duarouterConfiguration.xsd">

    <input>
        <net-file value="osm.net.xml.gz"/>
        <route-files value="osm.truck.trips.xml"/>
    </input>

    <output>
        <output-file value="osm.truck.rou.xml"/>
        <alternatives-output value="NUL"/>
    </output>

    <processing>
        <remove-loops value="true"/>
    </processing>

    <time>
        <begin value="0.0"/>
        <end value="3600.0"/>
    </time>

    <report>
        <no-warnings value="true"/>
        <ignore-errors value="true"/>
        <no-step-log value="true"/>
    </report>

</configuration>
-->

<routes xmlns:xsi="http://www.w3.org/2001/XMLSchema-instance" xsi:noNamespaceSchemaLocation="http://sumo.dlr.de/xsd/routes_file.xsd">
    <vType id="truck_truck" vClass="truck"/>
    <vehicle id="truck0" type="truck_truck" depart="0.00" departLane="best">
        <route edges="700440130#0 700440130#1 700440128 700440129 1290085526#0 150041594#0 56163443#1 700440137 700440134 715913363#2 1290085525#0 1290085525#1 700440148 378479743#0 378479743#1 378479743#2 378479743#3 378479743#4 378479743#5 378479743#6 700236092#0 700236092#1 700236093 44973978 506013711#1 4019053#2 -150032770#12 -150032770#11 -150032770#8"/>
    </vehicle>
    <vehicle id="truck1" type="truck_truck" depart="32.56" departLane="best">
        <route edges="53207959#1 53207959#3 150041593 196656222#0 196656222#1 196656222#2 700440130#0 700440130#1 700440128 700440129 1290085526#0 150041594#0 56163443#1 700440137 700440134 715913363#2 1290085525#0 1290085525#1 700440148 378479743#0 378479743#1 378479743#2 378479743#3 378479743#4 378479743#5 378479743#6 -1265069358#1 -1265069360#0"/>
    </vehicle>
    <vehicle id="truck2" type="truck_truck" depart="65.11" departLane="best">
        <route edges="53207959#0 53207959#1 53207959#3 150041593 196656222#0 196656222#1 196656222#2 700440130#0 700440130#1 700440128 700440129 1290085526#0 150041594#0 56163443#1 700440137 700440134 715913363#2 1290085525#0 1290085525#1 -4144040#4 -4144040#3"/>
    </vehicle>
    <vehicle id="truck3" type="truck_truck" depart="97.67" departLane="best">
        <route edges="53207959#0 53207959#1 53207959#3 150041593 196656222#0 196656222#1 196656222#2 700440130#0 700440130#1 700440128 700440129 1290085526#0 150041594#0 56163443#1 700440137 700440134 715913363#2 1290085525#0 1290085525#1 700440148 378479743#0 378479743#1 378479743#2 378479743#3 378479743#4 378479743#5 378479743#6 700236092#0 700236092#1 700236093 44973978 506013711#1 35574708#1 4212051"/>
    </vehicle>
    <vehicle id="truck6" type="truck_truck" depart="195.34" departLane="best">
        <route edges="196656222#2 700440130#0 700440130#1 700440128 700440129 1290085526#0 150041594#0 56163443#1 700440137 700440134 715913363#2 1290085525#0 1290085525#1 -4144040#4 -4144040#3"/>
    </vehicle>
    <vehicle id="truck7" type="truck_truck" depart="227.90" departLane="best">
        <route edges="-4295817#1 -4295817#0 700440129 1290085526#0 150041594#0 56163443#1 700440137 700440134 715913363#2 1290085525#0 1290085525#1 700440148 378479743#0 378479743#1 378479743#2 378479743#3 378479743#4 378479743#5 378479743#6 700236092#0 700236092#1 700236093 44973978 506013711#1 35574708#1 4212051"/>
    </vehicle>
    <vehicle id="truck9" type="truck_truck" depart="293.01" departLane="best">
        <route edges="4195580#1 4195580#2 60263960 116556688 43135644#0 378479740#1 -700440136 -56163443#3 -150041594#1 -1290085526#1 -700440129 -700440128 -700440130#1 -700440130#0"/>
    </vehicle>
    <vehicle id="truck10" type="truck_truck" depart="325.57" departLane="best">
        <route edges="-378479743#4 -378479743#3 -378479743#2 -378479743#1 -378479743#0 700440131 506015829#1 506015832 700440133 378479740#1 -700440136 -56163443#3 -150041551#3 -4295817#3"/>
    </vehicle>
    <vehicle id="truck11" type="truck_truck" depart="358.12" departLane="best" departSpeed="max">
        <route edges="38115188 150041593 196656222#0 196656222#1 196656222#2 700440130#0 700440130#1 700440128 700440129 1290085526#0 150041594#0 56163443#1 700440137 700440134 715913363#2 1290085525#0 1290085525#1 700440148"/>
    </vehicle>
    <vehicle id="truck12" type="truck_truck" depart="390.68" departLane="best">
        <route edges="-881694399 -182982119#1 56163443#1 700440137 700440134 715913363#2 1290085525#0 1290085525#1 700440148 378479743#0 378479743#1 378479743#2 378479743#3 378479743#4 378479743#5 378479743#6 700236092#0 700236092#1 700236093 44973978 506013711#1 4019053#2 -150032770#12 -150032770#11 -150032770#8 -150032770#7 -150032770#5 -150032770#4 -150032770#3 -150032770#2"/>
    </vehicle>
    <vehicle id="truck13" type="truck_truck" depart="423.24" departLane="best">
        <route edges="23508224 -4295817#0 700440129 1290085526#0 150041594#0 56163443#1 700440137 700440134 715913363#2 1290085525#0 1290085525#1 700440148 378479743#0 378479743#1 378479743#2 378479743#3 378479743#4 378479743#5 378479743#6 -1265069358#1 254075881#1"/>
    </vehicle>
    <vehicle id="truck14" type="truck_truck" depart="455.79" departLane="best">
        <route edges="-881694399 -182982119#1 56163443#1 700440137 700440134 715913363#2 1290085525#0 1290085525#1 700440148 378479743#0 378479743#1 378479743#2 378479743#3 378479743#4 378479743#5 378479743#6 700236092#0 700236092#1 700236093 44973978 506013711#1 4019053#2 -150032770#12 -150032770#11 -150032770#8"/>
    </vehicle>
    <vehicle id="truck16" type="truck_truck" depart="520.91" departLane="best" departSpeed="max">
        <route edges="492925920#0 492925920#1 395456768 395456769#0 395456769#1 24509268 700440138 700440139 -378479743#6 -378479743#5 -378479743#4 -378479743#3 -378479743#2 -378479743#1 -378479743#0 700440131 506015829#1 506015832 700440133 378479740#1 -700440136 -56163443#3 -150041551#3 -150041551#1"/>
    </vehicle>
    <vehicle id="truck17" type="truck_truck" depart="553.46" departLane="best">
        <route edges="1265069358#1 -378479743#6 -378479743#5 -378479743#4 -378479743#3 -378479743#2 -378479743#1 -378479743#0 700440131 506015829#1 506015832 700440133 378479740#1 -700440136 -56163443#3 -150041594#1 -1290085526#1 -700440129 -700440128 -700440130#1 -700440130#0 -196656222#2 -196656222#1 -196656222#0 -53207957"/>
    </vehicle>
    <vehicle id="truck19" type="truck_truck" depart="618.58" departLane="best" departSpeed="max">
        <route edges="-715835444#6 -715835444#5 -715835444#4 150041551#0 150041551#1 150041551#2 56163443#1 700440137 700440134 715913363#2 1290085525#0 1290085525#1 700440148 378479743#0 378479743#1 378479743#2 378479743#3 378479743#4 378479743#5 378479743#6 700236092#0 700236092#1 700236093 44973978 506013711#1 4019053#2 -150032770#12 -150032770#11"/>
    </vehicle>
    <vehicle id="truck21" type="truck_truck" depart="683.69" departLane="best">
        <route edges="196656222#0 196656222#1 196656222#2 700440130#0 700440130#1 700440128 700440129 1290085526#0 150041594#0 56163443#1 700440137 700440134 214812788#2 73372559 4295833#0"/>
    </vehicle>
    <vehicle id="truck22" type="truck_truck" depart="716.25" departLane="best">
        <route edges="492925920#1 395456768 395456769#0 395456769#1 24509268 700440138 700440139 -378479743#6 -378479743#5 -378479743#4 -378479743#3 -378479743#2 -378479743#1 -378479743#0 700440131 506015829#1 506015832 700440133 378479740#1 -700440136 -56163443#3 -150041594#1"/>
    </vehicle>
    <vehicle id="truck23" type="truck_truck" depart="748.81" departLane="best">
        <route edges="484022097 4144040#3 4144040#4 700440148 700440131 506015829#1 506015832 700440133 378479740#1 -700440136 -56163443#3 -150041594#1 -1290085526#1 -700440129 -700440128 -700440130#1 -700440130#0 -196656222#2 -196656222#1 -196656222#0 -53207957"/>
    </vehicle>
    <vehicle id="truck24" type="truck_truck" depart="781.36" departLane="best" departSpeed="max">
        <route edges="150041565 700440130#0 700440130#1 700440128 700440129 1290085526#0 150041594#0 56163443#1 700440137 700440134 715913363#2 1290085525#0 1290085525#1 700440148 378479743#0 378479743#1 378479743#2 378479743#3 378479743#4 378479743#5 378479743#6 700236092#0 700236092#1 700236093 44973978 506013711#1 4019053#2 -150032770#12 -150032770#11 -150032770#8 -150032770#7 -150032770#5 -150032770#4"/>
    </vehicle>
    <vehicle id="truck25" type="truck_truck" depart="813.92" departLane="best">
        <route edges="196656222#0 196656222#1 196656222#2 700440130#0 700440130#1 700440128 700440129 1290085526#0 150041594#0 56163443#1 700440137 700440134 715913363#2 1290085525#0 1290085525#1 700440148 378479743#0 378479743#1 378479743#2 378479743#3 378479743#4 378479743#5 378479743#6 700236092#0 700236092#1 700236093 44973978 506013711#1 35574708#1"/>
    </vehicle>
    <vehicle id="truck27" type="truck_truck" depart="879.03" departLane="best">
        <route edges="196656222#1 196656222#2 700440130#0 700440130#1 700440128 700440129 1290085526#0 150041594#0 56163443#1 700440137 700440134 715913363#2 1290085525#0 1290085525#1 700440148 378479743#0 378479743#1 378479743#2 378479743#3 378479743#4 378479743#5 378479743#6 -1265069358#1 254075881#1 449551311"/>
    </vehicle>
    <vehicle id="truck28" type="truck_truck" depart="911.59" departLane="best">
        <route edges="53207959#0 53207959#1 53207959#3 150041593 196656222#0 196656222#1 196656222#2 700440130#0 700440130#1 700440128 700440129 1290085526#0 150041594#0 56163443#1 700440137 700440134 715913363#2 1290085525#0 1290085525#1 700440148 378479743#0 378479743#1 378479743#2 378479743#3"/>
    </vehicle>
    <vehicle id="truck29" type="truck_truck" depart="944.15" departLane="best">
        <route edges="150041551#1 150041551#2 56163443#1 700440137 700440134 715913363#2 1290085525#0 1290085525#1 700440148 378479743#0 378479743#1 378479743#2 378479743#3 378479743#4 378479743#5 378479743#6 700236092#0 700236092#1 700236093 44973978 506013711#1 4019053#2 -150032770#12 -150032770#11 -150032770#8 -150032770#7 -150032770#5 -150032770#4 -150032770#3 -150032770#2 -150032770#1 -150032770#0 150032770#0 150032770#1 150032770#2 150032770#3 150032770#4 150032770#5 150032770#7 150032770#8 150032770#11 150032770#12 103958941#0"/>
    </vehicle>
    <vehicle id="truck30" type="truck_truck" depart="976.70" departLane="best">
        <route edges="700440130#1 700440128 700440129 1290085526#0 150041594#0 56163443#1 700440137 700440134 715913363#2 1290085525#0 1290085525#1 700440148"/>
    </vehicle>
    <vehicle id="truck31" type="truck_truck" depart="1009.26" departLane="best" departSpeed="max">
        <route edges="150041565 700440130#0 700440130#1 700440128 700440129 1290085526#0 150041594#0 56163443#1 700440137 700440134 214812788#2 73372559 -689912267#1 -689912267#0"/>
    </vehicle>
    <vehicle id="truck32" type="truck_truck" depart="1041.82" departLane="best">
        <route edges="715835444#5 23508224 -4295817#0 700440129 1290085526#0 150041594#0 56163443#1 700440137 700440134 715913363#2 1290085525#0 1290085525#1 700440148 378479743#0 378479743#1 75392301#0 75392301#1"/>
    </vehicle>
    <vehicle id="truck33" type="truck_truck" depart="1074.37" departLane="best">
        <route edges="196656222#2 700440130#0 700440130#1 700440128 700440129 1290085526#0 150041594#0 56163443#1 700440137 700440134 715913363#2 1290085525#0 1290085525#1 700440148 378479743#0 378479743#1 378479743#2"/>
    </vehicle>
    <vehicle id="truck35" type="truck_truck" depart="1139.49" departLane="best">
        <route edges="689912267#1 214812786 378479740#1 -700440136 -56163443#3 -150041594#1 -1290085526#1 -700440129 -700440128 -700440130#1 -700440130#0 -150041565"/>
    </vehicle>
    <vehicle id="truck36" type="truck_truck" depart="1172.04" departLane="best">
        <route edges="700440130#0 700440130#1 700440128 700440129 1290085526#0 150041594#0 56163443#1 700440137 700440134 116556686#1 -60263960 -4195580#2 -4195580#1"/>
    </vehicle>
    <vehicle id="truck38" type="truck_truck" depart="1237.16" departLane="best">
        <route edges="196656222#1 196656222#2 700440130#0 700440130#1 700440128 700440129 1290085526#0 150041594#0 56163443#1 700440137 700440134 116556686#1 -60263960 -4195580#2 -4195580#1 -4195580#0 -4144040#0"/>
    </vehicle>
    <vehicle id="truck39" type="truck_truck" depart="1269.71" departLane="best">
        <route edges="-378479743#6 -378479743#5 -378479743#4 -378479743#3 -378479743#2 -378479743#1 -378479743#0 700440131 506015829#1 506015832 700440133 378479740#1 -700440136 -56163443#3 -150041594#1 -1290085526#1 -700440129 -700440128 -700440130#1 -700440130#0 -150041565"/>
    </vehicle>
    <vehicle id="truck40" type="truck_truck" depart="1302.27" departLane="best" departSpeed="max">
        <route edges="43206315 53207959#0 53207959#1 53207959#3 150041593 196656222#0 196656222#1 196656222#2 700440130#0 700440130#1 700440128 700440129 1290085526#0 150041594#0 56163443#1 700440137 700440134 116556686#1 -60263960 -4195580#2 -4195580#1 -4195580#0 -4144040#0"/>
    </vehicle>
    <vehicle id="truck42" type="truck_truck" depart="1367.38" departLane="best">
        <route edges="150041551#2 56163443#1 700440137 700440134 715913363#2 1290085525#0 1290085525#1 700440148 378479743#0 378479743#1 378479743#2 378479743#3 378479743#4 378479743#5 378479743#6 -1265069358#1 -1265069360#0"/>
    </vehicle>
    <vehicle id="truck43" type="truck_truck" depart="1399.94" departLane="best" departSpeed="max">
        <route edges="-715835444#6 -715835444#5 -715835444#4 150041551#0 150041551#1 150041551#2 56163443#1 700440137 700440134 715913363#2 1290085525#0 1290085525#1 700440148"/>
    </vehicle>
    <vehicle id="truck45" type="truck_truck" depart="1465.05" departLane="best">
        <route edges="689912267#0 689912267#1 214812786 378479740#1 -700440136 -56163443#3 -150041551#3 -150041551#1 -150041551#0 715835444#4 715835444#5 715835444#6"/>
    </vehicle>
    <vehicle id="truck46" type="truck_truck" depart="1497.61" departLane="best">
        <route edges="53207959#1 53207959#3 150041593 196656222#0 196656222#1 196656222#2 700440130#0 700440130#1 700440128 700440129 1290085526#0 150041594#0 56163443#1 700440137 700440134 214812788#2 73372559 4295833#0"/>
    </vehicle>
    <vehicle id="truck47" type="truck_truck" depart="1530.17" departLane="best">
        <route edges="4144040#2 4144040#3 4144040#4 700440148 700440131 506015829#1 506015832 700440133 378479740#1 -700440136 -56163443#3 -150041594#1 -1290085526#1 -700440129 -700440128 -700440130#1"/>
    </vehicle>
    <vehicle id="truck49" type="truck_truck" depart="1595.28" departLane="best">
        <route edges="4195610#0 4195610#2 484022097 4144040#3 4144040#4 700440148 700440131 506015829#1 506015832 700440133 378479740#1 -700440136 -56163443#3 -150041594#1 -1290085526#1 -700440129 -700440128 -700440130#1 -700440130#0 -196656222#2 -196656222#1 -196656222#0 -53207957"/>
    </vehicle>
    <vehicle id="truck50" type="truck_truck" depart="1627.84" departLane="best" departSpeed="max">
        <route edges="43206315 53207959#0 53207959#1 53207959#3 150041593 196656222#0 196656222#1 196656222#2 700440130#0 700440130#1 700440128 700440129 1290085526#0 150041594#0 56163443#1 700440137 700440134 116556686#1 -60263960 -51873805"/>
    </vehicle>
    <vehicle id="truck51" type="truck_truck" depart="1660.39" departLane="best" departSpeed="max">
        <route edges="150041565 700440130#0 700440130#1 700440128 700440129 1290085526#0 150041594#0 56163443#1 700440137 700440134 116556686#1 -60263960 -4195580#2 -4195580#1 -4195580#0 -4144040#0"/>
    </vehicle>
    <vehicle id="truck52" type="truck_truck" depart="1692.95" departLane="best">
        <route edges="196656222#1 196656222#2 700440130#0 700440130#1 700440128 700440129 1290085526#0 150041594#0 56163443#1 700440137 700440134 715913363#2"/>
    </vehicle>
    <vehicle id="truck53" type="truck_truck" depart="1725.51" departLane="best">
        <route edges="700440130#1 700440128 700440129 1290085526#0 150041594#0 56163443#1 700440137 700440134 214812788#2 73372559 -689912267#1 -689912267#0 -624481020#4 -624481020#3 -624481020#2"/>
    </vehicle>
    <vehicle id="truck55" type="truck_truck" depart="1790.62" departLane="best" departSpeed="max">
        <route edges="43206315 53207959#0 53207959#1 53207959#3 150041593 196656222#0 196656222#1 196656222#2 700440130#0 700440130#1 700440128 700440129 1290085526#0 150041594#0 56163443#1 700440137 700440134 715913363#2 1290085525#0 1290085525#1 700440148 378479743#0 378479743#1 378479743#2 378479743#3 378479743#4 378479743#5 378479743#6 700236092#0 700236092#1 700236093 44973978 506013711#1 4019053#2 -150032770#12"/>
    </vehicle>
    <vehicle id="truck56" type="truck_truck" depart="1823.18" departLane="best" departSpeed="max">
        <route edges="624481020#0 624481020#1 624481020#2 624481020#3 624481020#4 689912267#0 689912267#1 214812786 378479740#1 -700440136 -56163443#3 -150041594#1 -1290085526#1 -700440129 -700440128 -700440130#1 -700440130#0 -196656222#2 -196656222#1 -196656222#0 -53207957"/>
    </vehicle>
    <vehicle id="truck57" type="truck_truck" depart="1855.73" departLane="best">
        <route edges="700440130#1 700440128 700440129 1290085526#0 150041594#0 56163443#1 700440137 700440134 715913363#2 1290085525#0 1290085525#1 700440148 378479743#0 378479743#1 378479743#2 378479743#3 378479743#4 378479743#5 378479743#6 700236092#0 700236092#1 700236093 44973978 506013711#1 35574708#1 4212051"/>
    </vehicle>
    <vehicle id="truck58" type="truck_truck" depart="1888.29" departLane="best">
        <route edges="-715835444#1 60263960 116556688 43135644#0 378479740#1 -700440136 -56163443#3 -150041594#1 -1290085526#1 -700440129 -700440128 -700440130#1 -700440130#0 -196656222#2 -196656222#1 -196656222#0 -53207957"/>
    </vehicle>
    <vehicle id="truck61" type="truck_truck" depart="1985.96" departLane="best" departSpeed="max">
        <route edges="38115188 150041593 196656222#0 196656222#1 196656222#2 700440130#0 700440130#1 700440128 700440129 1290085526#0 150041594#0 56163443#1 700440137 700440134 116556686#1 -60263960 -4195580#2 -4195580#1 -4195580#0 4144040#1 4144040#2"/>
    </vehicle>
    <vehicle id="truck63" type="truck_truck" depart="2051.08" departLane="best">
        <route edges="-378479743#6 -378479743#5 -378479743#4 -378479743#3 -378479743#2 -378479743#1 -378479743#0 700440131 506015829#1 506015832 700440133 378479740#1 -700440136 -56163443#3 182982119#0 881694399"/>
    </vehicle>
    <vehicle id="truck64" type="truck_truck" depart="2083.63" departLane="best">
        <route edges="624481020#1 624481020#2 624481020#3 624481020#4 689912267#0 689912267#1 214812786 378479740#1 -700440136 -56163443#3 -150041594#1 -1290085526#1 -700440129 -700440128 -700440130#1 -700440130#0 -196656222#2 -196656222#1 -196656222#0 -53207957"/>
    </vehicle>
    <vehicle id="truck67" type="truck_truck" depart="2181.30" departLane="best" departSpeed="max">
        <route edges="492925920#0 492925920#1 395456768 395456769#0 395456769#1 24509268 700440138 700440139 -378479743#6 -378479743#5 -378479743#4 -378479743#3 -378479743#2 -378479743#1 -378479743#0 700440131 506015829#1 506015832 700440133 378479740#1 -700440136 -56163443#3 -150041594#1 -1290085526#1 -700440129 -700440128 -700440130#1 -700440130#0 -150041565"/>
    </vehicle>
    <vehicle id="truck69" type="truck_truck" depart="2246.42" departLane="best" departSpeed="max">
        <route edges="43206315 53207959#0 53207959#1 53207959#3 150041593 196656222#0 196656222#1 196656222#2 700440130#0 700440130#1 700440128 700440129 1290085526#0 150041594#0 56163443#1 700440137 700440134 715913363#2 1290085525#0 1290085525#1 700440148 378479743#0 378479743#1 378479743#2 378479743#3 378479743#4 378479743#5 378479743#6 700236092#0 700236092#1 700236093 44973978 506013711#1 4019053#2 -150032770#12 -150032770#11 -150032770#8 -150032770#7 -150032770#5"/>
    </vehicle>
    <vehicle id="truck73" type="truck_truck" depart="2376.64" departLane="best" departSpeed="max">
        <route edges="150041565 700440130#0 700440130#1 700440128 700440129 1290085526#0 150041594#0 56163443#1 700440137 700440134 715913363#2 1290085525#0 1290085525#1 700440148 378479743#0 378479743#1 378479743#2 378479743#3 378479743#4 378479743#5 378479743#6 700236092#0 700236092#1 700236093 44973978 506013711#1 35574708#1 4212051"/>
    </vehicle>
    <vehicle id="truck75" type="truck_truck" depart="2441.76" departLane="best" departSpeed="max">
        <route edges="1265069359 1265069358#1 -378479743#6 -378479743#5 -378479743#4 -378479743#3 -378479743#2 -378479743#1 -378479743#0 700440131 506015829#1 506015832 700440133 378479740#1 -700440136 -56163443#3 -150041594#1 -1290085526#1 -700440129 -700440128"/>
    </vehicle>
    <vehicle id="truck76" type="truck_truck" depart="2474.31" departLane="best" departSpeed="max">
        <route edges="38115188 150041593 196656222#0 196656222#1 196656222#2 700440130#0 700440130#1 700440128 700440129 1290085526#0 150041594#0 56163443#1 700440137 700440134 116556686#1 -60263960 60263960 116556688"/>
    </vehicle>
    <vehicle id="truck77" type="truck_truck" depart="2506.87" departLane="best" departSpeed="max">
        <route edges="492925920#0 492925920#1 395456768 395456769#0 395456769#1 24509268 700440138 700440139 -378479743#6 -378479743#5 -378479743#4 -378479743#3 -378479743#2 -378479743#1 -378479743#0 700440131 506015829#1 506015832 700440133 378479740#1 -700440136 -56163443#3 -150041594#1 -1290085526#1 -700440129 -700440128 -700440130#1 -700440130#0 -196656222#2 -196656222#1 -196656222#0 -53207957"/>
    </vehicle>
    <vehicle id="truck78" type="truck_truck" depart="2539.43" departLane="best">
        <route edges="-4295833#3 -4295833#2 -4295833#1 -4295833#0 214812786 378479740#1 -700440136 -56163443#3 -150041594#1 -1290085526#1 -700440129 -700440128 -700440130#1 -700440130#0 -150041565"/>
    </vehicle>
    <vehicle id="truck79" type="truck_truck" depart="2571.98" departLane="best">
        <route edges="196656222#0 196656222#1 196656222#2 700440130#0 700440130#1 700440128 700440129 1290085526#0 150041594#0 56163443#1 700440137 700440134 214812788#2 73372559 4295833#0 4295833#1 4295833#2 4295833#3 4295833#4 -874106322"/>
    </vehicle>
    <vehicle id="truck80" type="truck_truck" depart="2604.54" departLane="best">
        <route edges="196656222#1 196656222#2 700440130#0 700440130#1 700440128 700440129 1290085526#0 150041594#0 56163443#1 700440137 700440134 715913363#2 1290085525#0 1290085525#1 700440148 378479743#0 378479743#1 378479743#2 378479743#3 378479743#4 378479743#5 378479743#6 -1265069358#1 254075881#1"/>
    </vehicle>
    <vehicle id="truck81" type="truck_truck" depart="2637.10" departLane="best">
        <route edges="492925920#1 395456768 395456769#0 395456769#1 24509268 700440138 700440139 -378479743#6 -378479743#5 -378479743#4 -378479743#3 -378479743#2 -378479743#1 -378479743#0 700440131 506015829#1 506015832 700440133 116556686#1 -60263960 715835444#1 -23508141#1 23508142#0"/>
    </vehicle>
    <vehicle id="truck82" type="truck_truck" depart="2669.65" departLane="best" departSpeed="max">
        <route edges="150041565 700440130#0 700440130#1 700440128 700440129 1290085526#0 150041594#0 56163443#1 700440137 700440134 214812788#2 73372559 -689912267#1 -689912267#0"/>
    </vehicle>
    <vehicle id="truck84" type="truck_truck" depart="2734.77" departLane="best">
        <route edges="-4295817#1 -4295817#0 700440129 1290085526#0 150041594#0 56163443#1 700440137 700440134 715913363#2 1290085525#0 1290085525#1 700440148 378479743#0 378479743#1 378479743#2 378479743#3 378479743#4 378479743#5 378479743#6 700236092#0 700236092#1 700236093 44973978 506013711#1 4019053#2 -150032770#12 -150032770#11 -150032770#8 -150032770#7 -150032770#5"/>
    </vehicle>
    <vehicle id="truck85" type="truck_truck" depart="2767.32" departLane="best" departSpeed="max">
        <route edges="38115188 150041593 196656222#0 196656222#1 196656222#2 700440130#0 700440130#1 700440128 700440129 1290085526#0 150041594#0 56163443#1 700440137 700440134 116556686#1 -60263960 -51873805"/>
    </vehicle>
    <vehicle id="truck86" type="truck_truck" depart="2799.88" departLane="best" departSpeed="max">
        <route edges="492925920#0 492925920#1 395456768 395456769#0 395456769#1 24509268 700440138 700440139 -378479743#6 -378479743#5 -378479743#4 -378479743#3 -378479743#2 -378479743#1 -378479743#0 700440131 506015829#1 506015832 700440133 378479740#1 -700440136 -56163443#3 -150041594#1 -1290085526#1 -700440129 -700440128 -700440130#1 -700440130#0 -196656222#2"/>
    </vehicle>
    <vehicle id="truck88" type="truck_truck" depart="2864.99" departLane="best">
        <route edges="23248109#1 -378479743#3 -378479743#2 -378479743#1 -378479743#0 700440131 506015829#1 506015832 700440133 378479740#1 -700440136 -56163443#3 -150041551#3 -150041551#1 -150041551#0 715835444#4 715835444#5 715835444#6"/>
    </vehicle>
    <vehicle id="truck90" type="truck_truck" depart="2930.11" departLane="best">
        <route edges="196656222#0 196656222#1 196656222#2 700440130#0 700440130#1 700440128 700440129 1290085526#0 150041594#0 56163443#1 700440137 700440134 715913363#2 1290085525#0 1290085525#1 700440148 378479743#0 378479743#1 378479743#2 378479743#3"/>
    </vehicle>
    <vehicle id="truck91" type="truck_truck" depart="2962.66" departLane="best" departSpeed="max">
        <route edges="38115188 150041593 196656222#0 196656222#1 196656222#2 700440130#0 700440130#1 700440128 700440129 1290085526#0 150041594#0 56163443#1 700440137 700440134 715913363#2 1290085525#0 1290085525#1 700440148 378479743#0 378479743#1 378479743#2 378479743#3 378479743#4 378479743#5 378479743#6 700236092#0 700236092#1 700236093 44973978 506013711#1 35574708#1"/>
    </vehicle>
    <vehicle id="truck92" type="truck_truck" depart="2995.22" departLane="best" departSpeed="max">
        <route edges="1265069359 1265069358#1 -378479743#6 -378479743#5 -378479743#4 -378479743#3 -378479743#2 -378479743#1 -378479743#0 700440131 506015829#1 506015832 700440133 378479740#1 -700440136 -56163443#3"/>
    </vehicle>
    <vehicle id="truck93" type="truck_truck" depart="3027.78" departLane="best" departSpeed="max">
        <route edges="150041565 700440130#0 700440130#1 700440128 700440129 1290085526#0 150041594#0 56163443#1 700440137 700440134 715913363#2 1290085525#0 1290085525#1 -4144040#4 -4144040#3"/>
    </vehicle>
    <vehicle id="truck94" type="truck_truck" depart="3060.33" departLane="best">
        <route edges="-378479743#2 -378479743#1 -378479743#0 700440131 506015829#1 506015832 700440133 378479740#1 -700440136 -56163443#3 -150041551#3 -150041551#1 -150041551#0 715835444#4 715835444#5 715835444#6"/>
    </vehicle>
    <vehicle id="truck95" type="truck_truck" depart="3092.89" departLane="best">
        <route edges="4195580#0 4195580#1 4195580#2 60263960 116556688 43135644#0 378479740#1 -700440136 -56163443#3 -150041594#1 -1290085526#1 -700440129 -700440128 -700440130#1 -700440130#0 -196656222#2 -196656222#1 -196656222#0 -53207957"/>
    </vehicle>
    <vehicle id="truck96" type="truck_truck" depart="3125.45" departLane="best" departSpeed="max">
        <route edges="43206315 53207959#0 53207959#1 53207959#3 150041593 196656222#0 196656222#1 196656222#2 700440130#0 700440130#1 700440128 700440129 1290085526#0 150041594#0 56163443#1 700440137 700440134 715913363#2 1290085525#0 1290085525#1 700440148 378479743#0 378479743#1 378479743#2 378479743#3 378479743#4 378479743#5 378479743#6 700236092#0 700236092#1 700236093 44973978 506013711#1 4019053#2 -150032770#12 -150032770#11 -150032770#8 -150032770#7 -150032770#5 -150032770#4 -150032770#3 -150032770#2"/>
    </vehicle>
    <vehicle id="truck97" type="truck_truck" depart="3158.00" departLane="best">
        <route edges="-715835444#2 -715835444#1 60263960 116556688 43135644#0 715913363#2 1290085525#0 1290085525#1 700440148 378479743#0 378479743#1 378479743#2 378479743#3 378479743#4 378479743#5 378479743#6 700236092#0 700236092#1 700236093 44973978"/>
    </vehicle>
    <vehicle id="truck98" type="truck_truck" depart="3190.56" departLane="best" departSpeed="max">
        <route edges="38115188 150041593 196656222#0 196656222#1 196656222#2 700440130#0 700440130#1 700440128 700440129 1290085526#0 150041594#0 56163443#1 700440137 700440134 715913363#2 1290085525#0 1290085525#1 700440148 378479743#0 378479743#1 378479743#2 378479743#3 378479743#4 378479743#5 378479743#6 700236092#0"/>
    </vehicle>
    <vehicle id="truck99" type="truck_truck" depart="3223.12" departLane="best" departSpeed="max">
        <route edges="43206315 53207959#0 53207959#1 53207959#3 150041593 196656222#0 196656222#1 196656222#2 700440130#0 700440130#1 700440128 700440129 1290085526#0 150041594#0 56163443#1 700440137 700440134 116556686#1 -60263960 715835444#1 23508141#2 70205228#0"/>
    </vehicle>
    <vehicle id="truck101" type="truck_truck" depart="3288.23" departLane="best" departSpeed="max">