<?xml version="1.0" encoding="UTF-8"?>

<!-- generated on 2024-10-08 17:27:33.520292 by randomTrips.py UNKNOWN
<configuration>
    <net-file value="osm.net.xml.gz"/>
    <output-trip-file value="osm.bus.trips.xml"/>
    <route-file value="osm.bus.rou.xml"/>
    <prefix value="bus"/>
    <trip-attributes value="departLane=&quot;best&quot;"/>
    <fringe-start-attributes value="departSpeed=&quot;max&quot;"/>
    <vehicle-class value="bus"/>
    <fringe-factor value="5"/>
    <vclass value="bus"/>
    <via-edge-types value="highway.motorway,highway.motorway_link,highway.trunk_link,highway.primary_link,highway.secondary_link,highway.tertiary_link"/>
    <min-distance value="600.0"/>
    <min-distance.fringe value="10.0"/>
    <remove-loops value="True"/>
    <validate value="True"/>
    <insertion-density value="4.0"/>
</configuration>
-->

<!-- generated on 2024-10-08 17:27:33 by Eclipse SUMO duarouter Version 1.20.0
<configuration xmlns:xsi="http://www.w3.org/2001/XMLSchema-instance" xsi:noNamespaceSchemaLocation="http://sumo.dlr.de/xsd/duarouterConfiguration.xsd">

    <input>
        <net-file value="osm.net.xml.gz"/>
        <route-files value="osm.bus.trips.xml"/>
    </input>

    <output>
        <output-file value="osm.bus.trips.xml.tmp"/>
        <alternatives-output value="NUL"/>
        <write-trips value="true"/>
    </output>

    <processing>
        <remove-loops value="true"/>
    </processing>

    <time>
        <begin value="0.0"/>
        <end value="3600.0"/>
    </time>

    <report>
        <no-warnings value="true"/>
        <ignore-errors value="true"/>
        <no-step-log value="true"/>
    </report>

</configuration>
-->

<routes xmlns:xsi="http://www.w3.org/2001/XMLSchema-instance" xsi:noNamespaceSchemaLocation="http://sumo.dlr.de/xsd/routes_file.xsd">
    <vType id="bus_bus" vClass="bus"/>
    <trip id="bus2" type="bus_bus" depart="127.84" departLane="best" departSpeed="max" from="4144040#0" to="-53207957"/>
    <trip id="bus3" type="bus_bus" depart="191.77" departLane="best" from="23248109#0" to="-150041563"/>
    <trip id="bus7" type="bus_bus" depart="447.45" departLane="best" departSpeed="max" from="378543233#0" to="-700440130#0"/>
    <trip id="bus8" type="bus_bus" depart="511.37" departLane="best" from="-881694399" to="-150032770#3"/>
    <trip id="bus10" type="bus_bus" depart="639.22" departLane="best" departSpeed="max" from="-715835444#6" to="35574708#1"/>
    <trip id="bus11" type="bus_bus" depart="703.14" departLane="best" departSpeed="max" from="38115188" to="23015831"/>
    <trip id="bus12" type="bus_bus" depart="767.06" departLane="best" departSpeed="max" from="492925920#0" to="150041563"/>
    <trip id="bus13" type="bus_bus" depart="830.98" departLane="best" departSpeed="max" from="492925920#0" to="-150041551#1"/>
    <trip id="bus14" type="bus_bus" depart="894.90" departLane="best" from="1265069358#1" to="-53207957"/>
    <trip id="bus16" type="bus_bus" depart="1022.75" departLane="best" departSpeed="max" from="-715835444#6" to="-150032770#12"/>
    <trip id="bus17" type="bus_bus" depart="1086.67" departLane="best" from="196656222#1" to="4212051"/>
    <trip id="bus18" type="bus_bus" depart="1150.59" departLane="best" departSpeed="max" from="492925920#0" to="-196656222#0"/>
    <trip id="bus19" type="bus_bus" depart="1214.51" departLane="best" departSpeed="max" from="150041565" to="-150032770#5"/>
    <trip id="bus20" type="bus_bus" depart="1278.43" departLane="best" from="196656222#1" to="253272005"/>
    <trip id="bus24" type="bus_bus" depart="1534.12" departLane="best" departSpeed="max" from="150041565" to="-624481020#3"/>
    <trip id="bus25" type="bus_bus" depart="1598.04" departLane="best" from="378543233#2" to="23508142#2"/>
    <trip id="bus26" type="bus_bus" depart="1661.96" departLane="best" from="56163443#1" to="4019053#2"/>
    <trip id="bus27" type="bus_bus" depart="1725.89" departLane="best" departSpeed="max" from="38115188" to="73372559"/>
    <trip id="bus28" type="bus_bus" depart="1789.81" departLane="best" from="-378479743#4" to="-150041565"/>
    <trip id="bus29" type="bus_bus" depart="1853.73" departLane="best" from="395456769#1" to="-4295817#0"/>
    <trip id="bus30" type="bus_bus" depart="1917.65" departLane="best" from="1265069358#1" to="-4295817#3"/>
    <trip id="bus31" type="bus_bus" depart="1981.57" departLane="best" departSpeed="max" from="150041565" to="-1265069360#0"/>
    <trip id="bus32" type="bus_bus" depart="2045.50" departLane="best" from="196656222#2" to="700236093"/>
    <trip id="bus33" type="bus_bus" depart="2109.42" departLane="best" from="-38115197#1" to="-196656222#0"/>
    <trip id="bus35" type="bus_bus" depart="2237.26" departLane="best" from="624481020#3" to="715835444#6"/>
    <trip id="bus37" type="bus_bus" depart="2365.10" departLane="best" from="196656222#0" to="-51873805"/>
    <trip id="bus39" type="bus_bus" depart="2492.95" departLane="best" departSpeed="max" from="43206315" to="-51873805"/>
    <trip id="bus40" type="bus_bus" depart="2556.87" departLane="best" departSpeed="max" from="38115188" to="-150032770#4"/>
    <trip id="bus42" type="bus_bus" depart="2684.71" departLane="best" from="4144040#2" to="-53207957"/>
    <trip id="bus43" type="bus_bus" depart="2748.63" departLane="best" departSpeed="max" from="150041565" to="214846345#2"/>
    <trip id="bus44" type="bus_bus" depart="2812.56" departLane="best" departSpeed="max" from="150041565" to="-38115197#1"/>
    <trip id="bus45" type="bus_bus" depart="2876.48" departLane="best" from="395456769#0" to="-53207957"/>
    <trip id="bus46" type="bus_bus" depart="2940.40" departLane="best" from="700440128" to="-1265069358#1"/>
    <trip id="bus48" type="bus_bus" depart="3068.24" departLane="best" from="-182982119#1" to="44973978"/>
    <trip id="bus49" type="bus_bus" depart="3132.16" departLane="best" from="378543233#2" to="715835444#3"/>
    <trip id="bus50" type="bus_bus" depart="3196.09" departLane="best" from="700440129" to="4212051"/>
    <trip id="bus51" type="bus_bus" depart="3260.01" departLane="best" from="700440129" to="35574708#1"/>
    <trip id="bus52" type="bus_bus" depart="3323.93" departLane="best" from="-715835444#1" to="-53207957"/>
    <trip id="bus54" type="bus_bus" depart="3451.77" departLane="best" from="150041551#1" to="378479743#6"/>
    <trip id="bus55" type="bus_bus" depart="3515.69" departLane="best" from="150041551#2" to="4212051"/>
    <trip id="bus56" type="bus_bus" depart="3579.62" departLane="best" departSpeed="max" from="150041565" to="-150032770#0"/>
</routes>
