<?xml version="1.0" encoding="UTF-8"?>

<!-- generated on 2024-10-08 17:27:34.244129 by randomTrips.py UNKNOWN
<configuration>
    <net-file value="osm.net.xml.gz"/>
    <additional-files value="osm_stops.add.xml,osm_pt.rou.xml"/>
    <output-trip-file value="osm.pedestrian.trips.xml"/>
    <route-file value="osm.pedestrian.rou.xml"/>
    <persontrips value="True"/>
    <persontrip.walk-opposite-factor value="0.8"/>
    <prefix value="ped"/>
    <trip-attributes value="modes=&quot;public&quot;"/>
    <vehicle-class value="pedestrian"/>
    <fringe-factor value="1"/>
    <insertion-density value="10.0"/>
    <duarouter-weights.tls-penalty value="20"/>
</configuration>
-->

<routes xmlns:xsi="http://www.w3.org/2001/XMLSchema-instance" xsi:noNamespaceSchemaLocation="http://sumo.dlr.de/xsd/routes_file.xsd">
    <vType id="ped_pedestrian" vClass="pedestrian"/>
    <person id="ped0" depart="0.00" type="ped_pedestrian">
        <personTrip from="285156957" to="-1287285290#0" modes="public"/>
    </person>
    <person id="ped1" depart="15.19" type="ped_pedestrian">
        <personTrip from="-563630394#1" to="-4295833#0" modes="public"/>
    </person>
    <person id="ped2" depart="30.37" type="ped_pedestrian">
        <personTrip from="378479743#1" to="319910914" modes="public"/>
    </person>
    <person id="ped3" depart="45.56" type="ped_pedestrian">
        <personTrip from="624481020#2" to="-150041716#3" modes="public"/>
    </person>
    <person id="ped4" depart="60.75" type="ped_pedestrian">
        <personTrip from="13858853" to="-13755982" modes="public"/>
    </person>
    <person id="ped5" depart="75.94" type="ped_pedestrian">
        <personTrip from="-4212009" to="150041716#4" modes="public"/>
    </person>
    <person id="ped6" depart="91.12" type="ped_pedestrian">
        <personTrip from="-1287285290#1" to="-378479743#3" modes="public"/>
    </person>
    <person id="ped7" depart="106.31" type="ped_pedestrian">
        <personTrip from="285278284#1" to="23599727#1" modes="public"/>
    </person>
    <person id="ped8" depart="121.50" type="ped_pedestrian">
        <personTrip from="-4295817#1" to="256102746#1" modes="public"/>
    </person>
    <person id="ped9" depart="136.69" type="ped_pedestrian">
        <personTrip from="459339932#0" to="-115485620#1" modes="public"/>
    </person>
    <person id="ped10" depart="151.87" type="ped_pedestrian">
        <personTrip from="458284295" to="319910933#1" modes="public"/>
    </person>
    <person id="ped11" depart="167.06" type="ped_pedestrian">
        <personTrip from="-797259708#2" to="-285188051#2" modes="public"/>
    </person>
    <person id="ped12" depart="182.25" type="ped_pedestrian">
        <personTrip from="750168166#0" to="-750168167" modes="public"/>
    </person>
    <person id="ped13" depart="197.44" type="ped_pedestrian">
        <personTrip from="-22911004" to="-23101679#1" modes="public"/>
    </person>
    <person id="ped14" depart="212.62" type="ped_pedestrian">
        <personTrip from="539841922" to="256105105#5" modes="public"/>
    </person>
    <person id="ped15" depart="227.81" type="ped_pedestrian">
        <personTrip from="459339929" to="365217759" modes="public"/>
    </person>
    <person id="ped16" depart="243.00" type="ped_pedestrian">
        <personTrip from="23508141#2" to="847071794" modes="public"/>
    </person>
    <person id="ped17" depart="258.19" type="ped_pedestrian">
        <personTrip from="116556689#4" to="245221889" modes="public"/>
    </person>
    <person id="ped18" depart="273.37" type="ped_pedestrian">
        <personTrip from="494297578#1" to="26730977#4" modes="public"/>
    </person>
    <person id="ped19" depart="288.56" type="ped_pedestrian">
        <personTrip from="563390357#2" to="255797400" modes="public"/>
    </person>
    <person id="ped20" depart="303.75" type="ped_pedestrian">
        <personTrip from="327864899" to="-150032770#1" modes="public"/>
    </person>
    <person id="ped21" depart="318.94" type="ped_pedestrian">
        <personTrip from="-4295833#3" to="-624481020#3" modes="public"/>
    </person>
    <person id="ped22" depart="334.12" type="ped_pedestrian">
        <personTrip from="-150041699#1" to="-43206316" modes="public"/>
    </person>
    <person id="ped23" depart="349.31" type="ped_pedestrian">
        <personTrip from="-23401995#0" to="-563630394#4" modes="public"/>
    </person>
    <person id="ped24" depart="364.50" type="ped_pedestrian">
        <personTrip from="28247401" to="1153038902#0" modes="public"/>
    </person>
    <person id="ped25" depart="379.69" type="ped_pedestrian">
        <personTrip from="115485620#0" to="-4144040#2" modes="public"/>
    </person>
    <person id="ped26" depart="394.87" type="ped_pedestrian">
        <personTrip from="-563390357#2" to="715835444#5" modes="public"/>
    </person>
    <person id="ped27" depart="410.06" type="ped_pedestrian">
        <personTrip from="285278284#0" to="256105105#9" modes="public"/>
    </person>
    <person id="ped28" depart="425.25" type="ped_pedestrian">
        <personTrip from="-29895520#1" to="365217759" modes="public"/>
    </person>
    <person id="ped29" depart="440.44" type="ped_pedestrian">
        <personTrip from="-285295366" to="116556689#5" modes="public"/>
    </person>
    <person id="ped30" depart="455.62" type="ped_pedestrian">
        <personTrip from="975282766" to="285188050" modes="public"/>
    </person>
    <person id="ped31" depart="470.81" type="ped_pedestrian">
        <personTrip from="255729754#0" to="319910920#3" modes="public"/>
    </person>
    <person id="ped32" depart="486.00" type="ped_pedestrian">
        <personTrip from="528567529" to="4295817#0" modes="public"/>
    </person>
    <person id="ped33" depart="501.19" type="ped_pedestrian">
        <personTrip from="-4295833#4" to="-13858853" modes="public"/>
    </person>
    <person id="ped34" depart="516.37" type="ped_pedestrian">
        <personTrip from="-715835444#3" to="-563630389" modes="public"/>
    </person>
    <person id="ped35" depart="531.56" type="ped_pedestrian">
        <personTrip from="-4144040#3" to="715910744#1" modes="public"/>
    </person>
    <person id="ped36" depart="546.75" type="ped_pedestrian">
        <personTrip from="563630394#4" to="-715835444#3" modes="public"/>
    </person>
    <person id="ped37" depart="561.94" type="ped_pedestrian">
        <personTrip from="286646440" to="1198238995" modes="public"/>
    </person>
    <person id="ped38" depart="577.12" type="ped_pedestrian">
        <personTrip from="694836606" to="150032842" modes="public"/>
    </person>
    <person id="ped39" depart="592.31" type="ped_pedestrian">
        <personTrip from="-563390357#0" to="-478347396#0" modes="public"/>
    </person>
    <person id="ped40" depart="607.50" type="ped_pedestrian">
        <personTrip from="255729776" to="-56015406#0" modes="public"/>
    </person>
    <person id="ped41" depart="622.69" type="ped_pedestrian">
        <personTrip from="255797405#0" to="638694840#1" modes="public"/>
    </person>
    <person id="ped42" depart="637.87" type="ped_pedestrian">
        <personTrip from="1244524930" to="-4295817#0" modes="public"/>
    </person>
    <person id="ped43" depart="653.06" type="ped_pedestrian">
        <personTrip from="987109590" to="196656222#1" modes="public"/>
    </person>
    <person id="ped44" depart="668.25" type="ped_pedestrian">
        <personTrip from="-218848625#0" to="-150032770#11" modes="public"/>
    </person>
    <person id="ped45" depart="683.44" type="ped_pedestrian">
        <personTrip from="-23508141#2" to="28247397#0" modes="public"/>
    </person>
    <person id="ped46" depart="698.62" type="ped_pedestrian">
        <personTrip from="439271815#1" to="13858854" modes="public"/>
    </person>
    <person id="ped47" depart="713.81" type="ped_pedestrian">
        <personTrip from="-150041563" to="116556689#6" modes="public"/>
    </person>
    <person id="ped48" depart="729.00" type="ped_pedestrian">
        <personTrip from="987109589#1" to="23401995#3" modes="public"/>
    </person>
    <person id="ped49" depart="744.19" type="ped_pedestrian">
        <personTrip from="83079953" to="563390357#0" modes="public"/>
    </person>
    <person id="ped50" depart="759.37" type="ped_pedestrian">
        <personTrip from="-1185258336#4" to="365216929" modes="public"/>
    </person>
    <person id="ped51" depart="774.56" type="ped_pedestrian">
        <personTrip from="319910920#1" to="23508142#0" modes="public"/>
    </person>
    <person id="ped52" depart="789.75" type="ped_pedestrian">
        <personTrip from="-563390357#2" to="285188050" modes="public"/>
    </person>
    <person id="ped53" depart="804.94" type="ped_pedestrian">
        <personTrip from="-23508142#0" to="149518798" modes="public"/>
    </person>
    <person id="ped54" depart="820.12" type="ped_pedestrian">
        <personTrip from="150032770#8" to="749484712#1" modes="public"/>
    </person>
    <person id="ped55" depart="835.31" type="ped_pedestrian">
        <personTrip from="563630394#3" to="-56015406#0" modes="public"/>
    </person>
    <person id="ped56" depart="850.50" type="ped_pedestrian">
        <personTrip from="150041716#1" to="-327864903#0" modes="public"/>
    </person>
    <person id="ped57" depart="865.69" type="ped_pedestrian">
        <personTrip from="694836604" to="563630392#1" modes="public"/>
    </person>
    <person id="ped58" depart="880.87" type="ped_pedestrian">
        <personTrip from="-689912267#0" to="285156957" modes="public"/>
    </person>
    <person id="ped59" depart="896.06" type="ped_pedestrian">
        <personTrip from="256105105#9" to="-285188051#0" modes="public"/>
    </person>
    <person id="ped60" depart="911.25" type="ped_pedestrian">
        <personTrip from="4195580#0" to="23508142#2" modes="public"/>
    </person>
    <person id="ped61" depart="926.44" type="ped_pedestrian">
        <personTrip from="4295817#3" to="23401995#4" modes="public"/>
    </person>
    <person id="ped62" depart="941.62" type="ped_pedestrian">
        <personTrip from="-1153038902#0" to="-715911183#5" modes="public"/>
    </person>
    <person id="ped63" depart="956.81" type="ped_pedestrian">
        <personTrip from="-1185258343" to="715802321" modes="public"/>
    </person>
    <person id="ped64" depart="972.00" type="ped_pedestrian">
        <personTrip from="563896824" to="499270572" modes="public"/>
    </person>
    <person id="ped65" depart="987.19" type="ped_pedestrian">
        <personTrip from="-700440129" to="-150032873" modes="public"/>
    </person>
    <person id="ped66" depart="1002.37" type="ped_pedestrian">
        <personTrip from="563896824" to="715911183#6" modes="public"/>
    </person>
    <person id="ped67" depart="1017.56" type="ped_pedestrian">
        <personTrip from="-150041716#2" to="150041624#2" modes="public"/>
    </person>
    <person id="ped68" depart="1032.75" type="ped_pedestrian">
        <personTrip from="-150041624#1" to="4144040#3" modes="public"/>
    </person>
    <person id="ped69" depart="1047.94" type="ped_pedestrian">
        <personTrip from="4195580#2" to="-255729778" modes="public"/>
    </person>
    <person id="ped70" depart="1063.12" type="ped_pedestrian">
        <personTrip from="150041551#1" to="24509268" modes="public"/>
    </person>
    <person id="ped71" depart="1078.31" type="ped_pedestrian">
        <personTrip from="-563390357#0" to="563630394#0" modes="public"/>
    </person>
    <person id="ped72" depart="1093.50" type="ped_pedestrian">
        <personTrip from="13858854" to="-4144040#4" modes="public"/>
    </person>
    <person id="ped73" depart="1108.69" type="ped_pedestrian">
        <personTrip from="23508142#2" to="366601855" modes="public"/>
    </person>
    <person id="ped74" depart="1123.87" type="ped_pedestrian">
        <personTrip from="-378479743#5" to="-715802321" modes="public"/>
    </person>
    <person id="ped75" depart="1139.06" type="ped_pedestrian">
        <personTrip from="987109589#0" to="285278284#1" modes="public"/>
    </person>
    <person id="ped76" depart="1154.25" type="ped_pedestrian">
        <personTrip from="149518802#1" to="218848626#1" modes="public"/>
    </person>
    <person id="ped77" depart="1169.44" type="ped_pedestrian">
        <personTrip from="-24507771#1" to="-4295833#1" modes="public"/>
    </person>
    <person id="ped78" depart="1184.62" type="ped_pedestrian">
        <personTrip from="-77706449" to="256102746#0" modes="public"/>
    </person>
    <person id="ped79" depart="1199.81" type="ped_pedestrian">
        <personTrip from="-4305021#0" to="-4295817#0" modes="public"/>
    </person>
    <person id="ped80" depart="1215.00" type="ped_pedestrian">
        <personTrip from="-150041624#2" to="28247400#0" modes="public"/>
    </person>
    <person id="ped81" depart="1230.19" type="ped_pedestrian">
        <personTrip from="-4295833#4" to="689912267#1" modes="public"/>
    </person>
    <person id="ped82" depart="1245.37" type="ped_pedestrian">
        <personTrip from="56028463#1" to="-150041624#2" modes="public"/>
    </person>
    <person id="ped83" depart="1260.56" type="ped_pedestrian">
        <personTrip from="-465884704" to="30147052" modes="public"/>
    </person>
    <person id="ped84" depart="1275.75" type="ped_pedestrian">
        <personTrip from="-4195580#1" to="-257510647#0" modes="public"/>
    </person>
    <person id="ped85" depart="1290.94" type="ped_pedestrian">
        <personTrip from="715835444#5" to="255729810#1" modes="public"/>
    </person>
    <person id="ped86" depart="1306.12" type="ped_pedestrian">
        <personTrip from="150032877" to="4295833#3" modes="public"/>
    </person>
    <person id="ped87" depart="1321.31" type="ped_pedestrian">
        <personTrip from="459339929" to="-365216934" modes="public"/>
    </person>
    <person id="ped88" depart="1336.50" type="ped_pedestrian">
        <personTrip from="-23248109#0" to="148061776#0" modes="public"/>
    </person>
    <person id="ped89" depart="1351.69" type="ped_pedestrian">
        <personTrip from="13858859#0" to="150032866#0" modes="public"/>
    </person>
    <person id="ped90" depart="1366.87" type="ped_pedestrian">
        <personTrip from="365217759" to="319910910#0" modes="public"/>
    </person>
    <person id="ped91" depart="1382.06" type="ped_pedestrian">
        <personTrip from="886547965#1" to="-23248109#1" modes="public"/>
    </person>
    <person id="ped92" depart="1397.25" type="ped_pedestrian">
        <personTrip from="1255639803" to="-779975074" modes="public"/>
    </person>
    <person id="ped93" depart="1412.44" type="ped_pedestrian">
        <personTrip from="563390357#2" to="-494297577#0" modes="public"/>
    </person>
    <person id="ped94" depart="1427.62" type="ped_pedestrian">
        <personTrip from="-365216934" to="150032770#3" modes="public"/>
    </person>
    <person id="ped95" depart="1442.81" type="ped_pedestrian">
        <personTrip from="13858853" to="-572523427" modes="public"/>
    </person>
    <person id="ped96" depart="1458.00" type="ped_pedestrian">
        <personTrip from="-494297577#0" to="700440130#0" modes="public"/>
    </person>
    <person id="ped97" depart="1473.19" type="ped_pedestrian">
        <personTrip from="150032770#1" to="563390357#0" modes="public"/>
    </person>
    <person id="ped98" depart="1488.37" type="ped_pedestrian">
        <personTrip from="24509268" to="-150032770#2" modes="public"/>
    </person>
    <person id="ped99" depart="1503.56" type="ped_pedestrian">
        <personTrip from="999293416" to="519402126" modes="public"/>
    </person>
    <person id="ped100" depart="1518.75" type="ped_pedestrian">
        <personTrip from="797259709#2" to="700440139" modes="public"/>
    </person>
    <person id="ped101" depart="1533.94" type="ped_pedestrian">
        <personTrip from="539841923#0" to="-29895517" modes="public"/>
    </person>
    <person id="ped102" depart="1549.12" type="ped_pedestrian">
        <personTrip from="150041624#2" to="-4195580#1" modes="public"/>
    </person>
    <person id="ped103" depart="1564.31" type="ped_pedestrian">
        <personTrip from="1253930332" to="-150032873" modes="public"/>
    </person>
    <person id="ped104" depart="1579.50" type="ped_pedestrian">
        <personTrip from="116556689#4" to="886547966" modes="public"/>
    </person>
    <person id="ped105" depart="1594.69" type="ped_pedestrian">
        <personTrip from="-563390357#0" to="4295833#3" modes="public"/>
    </person>
    <person id="ped106" depart="1609.87" type="ped_pedestrian">
        <personTrip from="150032812#0" to="13858854" modes="public"/>
    </person>
    <person id="ped107" depart="1625.06" type="ped_pedestrian">
        <personTrip from="750168166#0" to="987109589#0" modes="public"/>
    </person>
    <person id="ped108" depart="1640.25" type="ped_pedestrian">
        <personTrip from="253230762" to="35771743#1" modes="public"/>
    </person>
    <person id="ped109" depart="1655.44" type="ped_pedestrian">
        <personTrip from="-285188051#2" to="-689756683" modes="public"/>
    </person>
    <person id="ped110" depart="1670.62" type="ped_pedestrian">
        <personTrip from="797259709#2" to="255797401#0" modes="public"/>
    </person>
    <person id="ped111" depart="1685.81" type="ped_pedestrian">
        <personTrip from="23599703" to="378543235#1" modes="public"/>
    </person>
    <person id="ped112" depart="1701.00" type="ped_pedestrian">
        <personTrip from="-150032770#8" to="255797405#0" modes="public"/>
    </person>
    <person id="ped113" depart="1716.19" type="ped_pedestrian">
        <personTrip from="150041716#3" to="56014965#0" modes="public"/>
    </person>
    <person id="ped114" depart="1731.37" type="ped_pedestrian">
        <personTrip from="-285188052#1" to="750168167" modes="public"/>
    </person>
    <person id="ped115" depart="1746.56" type="ped_pedestrian">
        <personTrip from="-150041699#1" to="-35771743#1" modes="public"/>
    </person>
    <person id="ped116" depart="1761.75" type="ped_pedestrian">
        <personTrip from="256102750#1" to="319910912" modes="public"/>
    </person>
    <person id="ped117" depart="1776.94" type="ped_pedestrian">
        <personTrip from="-458284289" to="-24507771#0" modes="public"/>
    </person>
    <person id="ped118" depart="1792.12" type="ped_pedestrian">
        <personTrip from="624481020#1" to="-478347396#0" modes="public"/>
    </person>
    <person id="ped119" depart="1807.31" type="ped_pedestrian">
        <personTrip from="256102750#1" to="26730977#4" modes="public"/>
    </person>
    <person id="ped120" depart="1822.50" type="ped_pedestrian">
        <personTrip from="1290085526#0" to="255797405#0" modes="public"/>
    </person>
    <person id="ped121" depart="1837.69" type="ped_pedestrian">
        <personTrip from="22938316#2" to="715835444#4" modes="public"/>
    </person>
    <person id="ped122" depart="1852.87" type="ped_pedestrian">
        <personTrip from="-378491236" to="334960660" modes="public"/>
    </person>
    <person id="ped123" depart="1868.06" type="ped_pedestrian">
        <personTrip from="-465884704" to="1198238995" modes="public"/>
    </person>
    <person id="ped124" depart="1883.25" type="ped_pedestrian">
        <personTrip from="308284295" to="-689912267#1" modes="public"/>
    </person>
    <person id="ped125" depart="1898.44" type="ped_pedestrian">
        <personTrip from="-715835444#4" to="395456769#0" modes="public"/>
    </person>
    <person id="ped126" depart="1913.62" type="ped_pedestrian">
        <personTrip from="-150041624#3" to="150032812#2" modes="public"/>
    </person>
    <person id="ped127" depart="1928.81" type="ped_pedestrian">
        <personTrip from="987109590" to="987109589#1" modes="public"/>
    </person>
    <person id="ped128" depart="1944.00" type="ped_pedestrian">
        <personTrip from="-150041636#0" to="-4195580#0" modes="public"/>
    </person>
    <person id="ped129" depart="1959.19" type="ped_pedestrian">
        <personTrip from="-563390357#0" to="715835444#3" modes="public"/>
    </person>
    <person id="ped130" depart="1974.37" type="ped_pedestrian">
        <personTrip from="56447699#1" to="56447699#0" modes="public"/>
    </person>
    <person id="ped131" depart="1989.56" type="ped_pedestrian">
        <personTrip from="115485617" to="-285188052#1" modes="public"/>
    </person>
    <person id="ped132" depart="2004.75" type="ped_pedestrian">
        <personTrip from="50507110" to="327864898" modes="public"/>
    </person>
    <person id="ped133" depart="2019.94" type="ped_pedestrian">
        <personTrip from="257510648" to="957138676#0" modes="public"/>
    </person>
    <person id="ped134" depart="2035.12" type="ped_pedestrian">
        <personTrip from="286497563" to="-1185258336#0" modes="public"/>
    </person>
    <person id="ped135" depart="2050.31" type="ped_pedestrian">
        <personTrip from="465884704" to="-689912267#0" modes="public"/>
    </person>
    <person id="ped136" depart="2065.50" type="ped_pedestrian">
        <personTrip from="29895520#1" to="715910743#0" modes="public"/>
    </person>
    <person id="ped137" depart="2080.69" type="ped_pedestrian">
        <personTrip from="-26168565" to="-23508224" modes="public"/>
    </person>
    <person id="ped138" depart="2095.87" type="ped_pedestrian">
        <personTrip from="-23508141#0" to="253230759#0" modes="public"/>
    </person>
    <person id="ped139" depart="2111.06" type="ped_pedestrian">
        <personTrip from="-563630392#1" to="256105105#5" modes="public"/>
    </person>
    <person id="ped140" depart="2126.25" type="ped_pedestrian">
        <personTrip from="35098345" to="-378491236" modes="public"/>
    </person>
    <person id="ped141" depart="2141.44" type="ped_pedestrian">
        <personTrip from="28247400#2" to="-56015406#1" modes="public"/>
    </person>
    <person id="ped142" depart="2156.62" type="ped_pedestrian">
        <personTrip from="150041636#0" to="689912267#1" modes="public"/>
    </person>
    <person id="ped143" depart="2171.81" type="ped_pedestrian">
        <personTrip from="539509020" to="-218848625#1" modes="public"/>
    </person>
    <person id="ped144" depart="2187.00" type="ped_pedestrian">
        <personTrip from="13858859#0" to="-563630394#3" modes="public"/>
    </person>
    <person id="ped145" depart="2202.19" type="ped_pedestrian">
        <personTrip from="-1153038902#4" to="4212009" modes="public"/>
    </person>
    <person id="ped146" depart="2217.37" type="ped_pedestrian">
        <personTrip from="283117346#1" to="-56014965#1" modes="public"/>
    </person>
    <person id="ped147" depart="2232.56" type="ped_pedestrian">
        <personTrip from="378479743#5" to="245221889" modes="public"/>
    </person>
    <person id="ped148" depart="2247.75" type="ped_pedestrian">
        <personTrip from="13860406" to="-1185258336#3" modes="public"/>
    </person>
    <person id="ped149" depart="2262.93" type="ped_pedestrian">
        <personTrip from="-150041636#1" to="59591191" modes="public"/>
    </person>
    <person id="ped150" depart="2278.12" type="ped_pedestrian">
        <personTrip from="689912267#0" to="23599727#1" modes="public"/>
    </person>
    <person id="ped151" depart="2293.31" type="ped_pedestrian">
        <personTrip from="50507110" to="255797402#1" modes="public"/>
    </person>
    <person id="ped152" depart="2308.50" type="ped_pedestrian">
        <personTrip from="-28247401" to="-255729776" modes="public"/>
    </person>
    <person id="ped153" depart="2323.68" type="ped_pedestrian">
        <personTrip from="-700440130#0" to="640167405" modes="public"/>
    </person>
    <person id="ped154" depart="2338.87" type="ped_pedestrian">
        <personTrip from="439271818#0" to="563390357#0" modes="public"/>
    </person>
    <person id="ped155" depart="2354.06" type="ped_pedestrian">
        <personTrip from="640167405" to="-4144040#3" modes="public"/>
    </person>
    <person id="ped156" depart="2369.25" type="ped_pedestrian">
        <personTrip from="-494297577#0" to="-23401995#3" modes="public"/>
    </person>
    <person id="ped157" depart="2384.43" type="ped_pedestrian">
        <personTrip from="4295833#0" to="59591191" modes="public"/>
    </person>
    <person id="ped158" depart="2399.62" type="ped_pedestrian">
        <personTrip from="1287285289" to="26937083#0" modes="public"/>
    </person>
    <person id="ped159" depart="2414.81" type="ped_pedestrian">
        <personTrip from="-285188051#1" to="715802321" modes="public"/>
    </person>
    <person id="ped160" depart="2430.00" type="ped_pedestrian">
        <personTrip from="563630388" to="881694397" modes="public"/>
    </person>
    <person id="ped161" depart="2445.18" type="ped_pedestrian">
        <personTrip from="459339932#1" to="56447699#1" modes="public"/>
    </person>
    <person id="ped162" depart="2460.37" type="ped_pedestrian">
        <personTrip from="-1287285290#0" to="378479743#2" modes="public"/>
    </person>
    <person id="ped163" depart="2475.56" type="ped_pedestrian">
        <personTrip from="-750168165" to="715835444#1" modes="public"/>
    </person>
    <person id="ped164" depart="2490.75" type="ped_pedestrian">
        <personTrip from="458284292#0" to="563630387" modes="public"/>
    </person>
    <person id="ped165" depart="2505.93" type="ped_pedestrian">
        <personTrip from="459339932#1" to="-563390357#2" modes="public"/>
    </person>
    <person id="ped166" depart="2521.12" type="ped_pedestrian">
        <personTrip from="4305021#0" to="-23508141#1" modes="public"/>
    </person>
    <person id="ped167" depart="2536.31" type="ped_pedestrian">
        <personTrip from="563630393" to="56028463#0" modes="public"/>
    </person>
    <person id="ped168" depart="2551.50" type="ped_pedestrian">
        <personTrip from="-4295817#3" to="465884704" modes="public"/>
    </person>
    <person id="ped169" depart="2566.68" type="ped_pedestrian">
        <personTrip from="150032863#0" to="-700440128" modes="public"/>
    </person>
    <person id="ped170" depart="2581.87" type="ped_pedestrian">
        <personTrip from="439271817#2" to="-4295833#3" modes="public"/>
    </person>
    <person id="ped171" depart="2597.06" type="ped_pedestrian">
        <personTrip from="-1268208399" to="-378479737#0" modes="public"/>
    </person>
    <person id="ped172" depart="2612.25" type="ped_pedestrian">
        <personTrip from="-749484708" to="563630388" modes="public"/>
    </person>
    <person id="ped173" depart="2627.43" type="ped_pedestrian">
        <personTrip from="797259709#1" to="-572523427" modes="public"/>
    </person>
    <person id="ped174" depart="2642.62" type="ped_pedestrian">
        <personTrip from="285188051#0" to="1244524930" modes="public"/>
    </person>
    <person id="ped175" depart="2657.81" type="ped_pedestrian">
        <personTrip from="886404164#0" to="23508141#2" modes="public"/>
    </person>
    <person id="ped176" depart="2673.00" type="ped_pedestrian">
        <personTrip from="715910743#0" to="-23508224" modes="public"/>
    </person>
    <person id="ped177" depart="2688.18" type="ped_pedestrian">
        <personTrip from="806364424" to="-327864903#0" modes="public"/>
    </person>
    <person id="ped178" depart="2703.37" type="ped_pedestrian">
        <personTrip from="779975074" to="-563390357#0" modes="public"/>
    </person>
    <person id="ped179" depart="2718.56" type="ped_pedestrian">
        <personTrip from="-23508141#1" to="149518798" modes="public"/>
    </person>
    <person id="ped180" depart="2733.75" type="ped_pedestrian">
        <personTrip from="365217759" to="-715835444#2" modes="public"/>
    </person>
    <person id="ped181" depart="2748.93" type="ped_pedestrian">
        <personTrip from="256105105#7" to="196656222#2" modes="public"/>
    </person>
    <person id="ped182" depart="2764.12" type="ped_pedestrian">
        <personTrip from="1185258336#3" to="255797398" modes="public"/>
    </person>
    <person id="ped183" depart="2779.31" type="ped_pedestrian">
        <personTrip from="-526519487" to="327864903#1" modes="public"/>
    </person>
    <person id="ped184" depart="2794.50" type="ped_pedestrian">
        <personTrip from="-1153038902#2" to="700440138" modes="public"/>
    </person>
    <person id="ped185" depart="2809.68" type="ped_pedestrian">
        <personTrip from="23508142#1" to="359458208#0" modes="public"/>
    </person>
    <person id="ped186" depart="2824.87" type="ped_pedestrian">
        <personTrip from="378479743#6" to="302591991" modes="public"/>
    </person>
    <person id="ped187" depart="2840.06" type="ped_pedestrian">
        <personTrip from="1125742272" to="-150041624#2" modes="public"/>
    </person>
    <person id="ped188" depart="2855.25" type="ped_pedestrian">
        <personTrip from="29895520#2" to="-749484712#1" modes="public"/>
    </person>
    <person id="ped189" depart="2870.43" type="ped_pedestrian">
        <personTrip from="-715835444#2" to="539841922" modes="public"/>
    </person>
    <person id="ped190" depart="2885.62" type="ped_pedestrian">
        <personTrip from="359458208#0" to="-689912267#1" modes="public"/>
    </person>
    <person id="ped191" depart="2900.81" type="ped_pedestrian">
        <personTrip from="-700440130#1" to="1287285290#0" modes="public"/>
    </person>
    <person id="ped192" depart="2916.00" type="ped_pedestrian">
        <personTrip from="1255639803" to="-640167405" modes="public"/>
    </person>
    <person id="ped193" depart="2931.18" type="ped_pedestrian">
        <personTrip from="-255729776" to="13755982" modes="public"/>
    </person>
    <person id="ped194" depart="2946.37" type="ped_pedestrian">
        <personTrip from="715910743#2" to="319910914" modes="public"/>
    </person>
    <person id="ped195" depart="2961.56" type="ped_pedestrian">