<?xml version="1.0" encoding="UTF-8"?>

<!-- generated on 2024-10-18 12:03:36.329981 by randomTrips.py UNKNOWN
<configuration>
    <net-file value="osm.net.xml.gz"/>
    <additional-files value="osm_stops.add.xml,osm_pt.rou.xml"/>
    <output-trip-file value="osm.pedestrian.trips.xml"/>
    <route-file value="osm.pedestrian.rou.xml"/>
    <persontrips value="True"/>
    <persontrip.walk-opposite-factor value="0.8"/>
    <prefix value="ped"/>
    <trip-attributes value="modes=&quot;public&quot;"/>
    <vehicle-class value="pedestrian"/>
    <fringe-factor value="1"/>
    <insertion-density value="10.0"/>
    <duarouter-weights.tls-penalty value="20"/>
</configuration>
-->

<!-- generated on 2024-10-18 12:03:36 by Eclipse SUMO duarouter Version 1.20.0
<configuration xmlns:xsi="http://www.w3.org/2001/XMLSchema-instance" xsi:noNamespaceSchemaLocation="http://sumo.dlr.de/xsd/duarouterConfiguration.xsd">

    <input>
        <net-file value="osm.net.xml.gz"/>
        <additional-files value="osm_stops.add.xml,osm_pt.rou.xml"/>
        <route-files value="osm.pedestrian.trips.xml"/>
    </input>

    <output>
        <output-file value="osm.pedestrian.rou.xml"/>
        <alternatives-output value="NUL"/>
    </output>

    <processing>
        <weights.tls-penalty value="20"/>
        <persontrip.walk-opposite-factor value="0.8"/>
    </processing>

    <time>
        <begin value="0.0"/>
        <end value="3600.0"/>
    </time>

    <report>
        <no-warnings value="true"/>
        <ignore-errors value="true"/>
        <no-step-log value="true"/>
    </report>

</configuration>
-->

<routes xmlns:xsi="http://www.w3.org/2001/XMLSchema-instance" xsi:noNamespaceSchemaLocation="http://sumo.dlr.de/xsd/routes_file.xsd">
    <vType id="ped_pedestrian" vClass="pedestrian"/>
    <person id="ped2" type="ped_pedestrian" depart="33.80">
        <walk edges="378479743#0 378479743#1 378479743#2 378479743#3 378479743#4 378479743#5 378479743#6 700236092#0 700236092#1 1125742272 984768176#1 984768176#2 149518804#2 149518804#3 23401995#1 23401995#2 52414187 319910916"/>
    </person>
    <person id="ped3" type="ped_pedestrian" depart="50.70">
        <walk edges="638694840#0 4213561#1 366601855 366601856 256102750#3 256105105#5 256105105#6 56028463#1 -257510647#0" busStop="763225186"/> <!-- Schloss -->
        <ride busStop="-15624443" lines="673:3" intended="pt_bus_673:3.0" depart="248.00"/> <!-- Ostbahnhof -->
        <walk edges="150041699#1 -150041699#2"/>
    </person>
    <person id="ped4" type="ped_pedestrian" depart="67.60">
        <walk edges="1287285290#3 -1287285290#2 -1287285290#1 -1287285290#0"/>
    </person>
    <person id="ped5" type="ped_pedestrian" depart="84.50">
        <walk edges="-4144040#1 4195580#0 4195580#1 4195580#2 715835444#1 715835444#2 -1153038902#4 -1153038902#2 -1153038902#0 29895520#3 -23101679#0 150041551#1 150041551#2 150041716#0 150041716#1"/>
    </person>
    <person id="ped6" type="ped_pedestrian" depart="101.40">
        <walk edges="-1185258343 -1153038902#2 -1153038902#0 29895520#3 -23101679#0 150041551#1 -150041551#3 255797405#1 255797402#1 150041594#0" busStop="818872832"/> <!-- Elisabethenstift/Woog -->
        <ride busStop="448433765" lines="672:1" intended="pt_bus_672:1.0" depart="344.00"/> <!-- Jugendstilbad -->
        <walk edges="255729754#1 255729754#2 700440148 378479743#0 378479743#1 378479743#2 365216934 -365216934"/>
    </person>
    <person id="ped7" type="ped_pedestrian" depart="118.30">
        <walk edges="285278284#0 596666653 378491236 150041636#0 150041636#1 150041636#2 519402125#0 255797401#1 255797401#0" busStop="-25599407"/> <!-- Elisabethenstift/Woog -->
        <walk edges="459339932#1 150041551#2 150041551#1 150041551#0 715835444#4 715835444#5 23508224"/>
    </person>
    <person id="ped8" type="ped_pedestrian" depart="135.20">
        <walk edges="-4144040#2 4144040#3 4144040#4 700440148 -378479743#0 -378479743#1 -378479743#2 -378479743#3 -23248109#1 -23248109#0 23248118 -689756683 -638694840#1 -638694840#0 4213561#1 4213561#0 4213557 256102749 256102750#1 256102746#1 256102744"/>
    </person>
    <person id="ped9" type="ped_pedestrian" depart="152.10">
        <walk edges="458284295 116556689#3 116556689#4 116556689#5 1125742271 -150041716#4 -150041716#3 -150041716#2 -150041716#1" busStop="-25599407"/> <!-- Elisabethenstift/Woog -->
        <walk edges="255797401#0 255797401#1 494297577#0 494297577#1 150041624#0 115485617 -115485620#0"/>
    </person>
    <person id="ped10" type="ped_pedestrian" depart="169.00">
        <walk edges="458284292#1 458284292#0 116556689#6 255729754#0 255729754#1 255729754#2 4144040#4 4144040#3 484022097 4195610#2 13858853 47492539 13858854 -24507771 -1287285290#3 -218848625#1 -327864903#1 218848626#1 327864907 327864908"/>
    </person>
    <person id="ped12" type="ped_pedestrian" depart="202.80">
        <walk edges="750168166#1 -750168166#0 715835444#4 -150041551#0 -150041551#1 4295817#3 750168165 -750168165"/>
    </person>
    <person id="ped13" type="ped_pedestrian" depart="219.70">
        <walk edges="-150041716#3 150041716#4 1125742271 116556689#6 255729754#0 255729754#1 255729754#2 4144040#4 4144040#3 484022097 4195610#2 13858853 47492539 13858854 -24507771 -1287285290#3 -218848625#1 -218848625#0"/>
    </person>
    <person id="ped14" type="ped_pedestrian" depart="236.60">
        <walk edges="53207954#0 359458213 -150041645#4 359458217#2" busStop="448433719"/> <!-- Ostbahnhof -->
        <ride busStop="448433765" lines="X69:0" intended="pt_bus_X69:0.0" depart="299.00"/> <!-- Jugendstilbad -->
        <walk edges="1244524930 253230759#1 253230759#0 -378479743#0 -378479743#1 -378479743#2 -378479743#3 -23248109#1 -23248109#0 23248118 -689756683 -638694840#1 -638694840#0 4213561#1 4213561#0 4213557 256105105#2"/>
    </person>
    <person id="ped15" type="ped_pedestrian" depart="253.50">
        <walk edges="458284292#2 83079953 255729804#0 255729804#3 255729797#0 255729797#1 1244524930 253230759#1 253230759#0 -378479743#0 -378479743#1 378479743#2 378479743#3 378479743#4 378479743#5 378479743#6 700236092#0 365217759"/>
    </person>
    <person id="ped16" type="ped_pedestrian" depart="270.40">
        <walk edges="23401995#3 -23401995#2 -23401995#1 -149518804#3 -149518804#2 -149518804#0 -984768176#1 984768175" busStop="4734204898"/> <!-- Kongresszentrum darmstadtium -->
        <walk edges="26937083#1 26937083#0" busStop="763225186"/> <!-- Schloss -->
        <ride busStop="-25599407" lines="672:2" intended="pt_bus_672:2.1" depart="682.00"/> <!-- Elisabethenstift/Woog -->
        <walk edges="255797401#0 255797401#1 -182982119#1 881694398"/>
    </person>
    <person id="ped17" type="ped_pedestrian" depart="287.30">
        <walk edges="115485620#0 -526519487 -150041624#0 494297577#1 494297577#0 255797401#1 255797401#0" busStop="-25599407"/> <!-- Elisabethenstift/Woog -->
        <walk edges="150041716#1 886547966 245221889"/>
    </person>
    <person id="ped19" type="ped_pedestrian" depart="321.11">
        <walk edges="56028463#1 -56015406#1 -56015406#0 256102750#3 366601856 366601855 4213561#1 638694840#0 638694840#1 689756683 -23248118 -23248109#0 -23248109#1 -378479743#3 -378479743#2 -378479743#1 -378479743#0 700440148 255729754#2 255729754#1 255729754#0 116556689#6 116556689#5 255797400"/>
    </person>
    <person id="ped20" type="ped_pedestrian" depart="338.01">
        <walk edges="359458205 -884145210#0 359458217#0 -359458208#1 50507098#0 50507110 196656222#1 149518798 -149518798"/>
    </person>
    <person id="ped21" type="ped_pedestrian" depart="354.91">
        <walk edges="-4195580#2 148061769 715910743#2 116556689#5 116556689#4 116556689#3 116556689#2 715911183#5 715911183#6 -689912267#0 -624481020#4 -624481020#3"/>
    </person>
    <person id="ped22" type="ped_pedestrian" depart="371.81">
        <walk edges="-150041645#4 359458217#2" busStop="448433719"/> <!-- Ostbahnhof -->
        <ride busStop="818872832" lines="X78:1" intended="pt_bus_X78:1.0" depart="438.00"/> <!-- Elisabethenstift/Woog -->
        <walk edges="150041594#0 255797402#1 255797405#1 -150041551#3 -4295817#3"/>
    </person>
    <person id="ped24" type="ped_pedestrian" depart="405.61">
        <walk edges="28247400#2 -28247400#1 -28247400#0 -4209642 253230759#1 253230759#0 -378479743#0 -378479743#1 -378479743#2 -378479743#3 -23248109#1 -23248109#0 23248118 -689756683 -987109589#1 -987109590"/>
    </person>
    <person id="ped25" type="ped_pedestrian" depart="422.51">
        <walk edges="1125742272 700236092#1 700236092#0 378479743#6 -378479743#5 -378479743#4"/>
    </person>
    <person id="ped26" type="ped_pedestrian" depart="439.41">
        <walk edges="-539841923#1 150032863#1 149518802#0 149518793 365216933 378479743#4 378479743#3 378479743#2 378479743#1 378479743#0 700440148 255729754#2 255729754#1 255729754#0 116556689#6 715910743#0"/>
    </person>
    <person id="ped28" type="ped_pedestrian" depart="473.21">
        <walk edges="-29895520#3 -23101679#0 150041551#1 -150041551#3 255797405#1 255797402#1 150041594#0" busStop="818872832"/> <!-- Elisabethenstift/Woog -->
        <ride busStop="448433765" lines="RH:0" intended="pt_bus_RH:0.1" depart="733.00"/> <!-- Jugendstilbad -->
        <walk edges="255729754#1 255729754#2 700440148 378479743#0 378479743#1 378479743#2 378479743#3 378479743#4 378479743#5 378479743#6 700236092#0 365217759"/>
    </person>
    <person id="ped29" type="ped_pedestrian" depart="490.11">
        <walk edges="-29895519#1 -150041716#2 -150041716#1" busStop="-25599407"/> <!-- Elisabethenstift/Woog -->
        <walk edges="255797401#0 255797401#1 494297577#0 494297577#1 150041624#0 115485617 -115485620#0 115485620#0"/>
    </person>
    <person id="ped31" type="ped_pedestrian" depart="523.91">
        <walk edges="253230762 439271817#1 439271817#2 1125742272 984768176#1 984768176#2 149518804#2 149518804#3 26730977#2 319910933#1"/>
    </person>
    <person id="ped32" type="ped_pedestrian" depart="540.81">
        <walk edges="519402126 83079953 255729804#0 255729804#3 255729797#0 255729797#1 1244524930" busStop="448433765"/> <!-- Jugendstilbad -->
        <walk edges="255729754#1 255729754#2 4144040#4 4144040#3 484022097 4195610#2"/>
    </person>
    <person id="ped33" type="ped_pedestrian" depart="557.71">
        <walk edges="-4209642 253230759#1 253230759#0 -378479743#0 -378479743#1 378479743#2 378479743#3 378479743#4 -365216932 149518793 149518802#0 150032863#2 1287285289 -1287285290#1"/>
    </person>
    <person id="ped34" type="ped_pedestrian" depart="574.61">
        <walk edges="-715835444#2 -715835444#1 -4195580#2 -4195580#1 -4195580#0 -4144040#0 4144040#0 4144040#1 4144040#2 -484022097 4195610#2 13858853 47492539 13858854 -24507771 -1287285290#3 539841923#0 -539841923#1"/>
    </person>
    <person id="ped35" type="ped_pedestrian" depart="591.51">
        <walk edges="-378479743#5 -378479743#4 -378479743#3 -378479743#2 -378479743#1 -378479743#0 700440148 255729754#2 255729754#1 255729754#0 116556689#6 715911183#0"/>
    </person>
    <person id="ped36" type="ped_pedestrian" depart="608.41">
        <walk edges="56447699#1 286646440 256102748 256105105#9 256102746#0 256102744 -257510647#0" busStop="763225186"/> <!-- Schloss -->
        <ride busStop="-25599407" lines="RH:1" intended="pt_bus_RH:1.0" depart="734.00"/> <!-- Elisabethenstift/Woog -->
        <walk edges="459339932#1 150041551#2 150041551#1 23101679#0 -29895520#3 1153038902#0 1153038902#2 1153038902#4 -715835444#2"/>
    </person>
    <person id="ped37" type="ped_pedestrian" depart="625.31">
        <walk edges="29895517 -150041716#3 29895519#1 29895519#2 29895520#0 -1185258339 1185258336#2 1185258336#0"/>
    </person>
    <person id="ped38" type="ped_pedestrian" depart="642.21">
        <walk edges="700236092#1 1125742272 984768176#1 984768176#2 150032812#1"/>
    </person>
    <person id="ped40" type="ped_pedestrian" depart="676.01">
        <walk edges="255729754#2 255729754#1 255729754#0 116556689#6 1125742271 -150041716#4 -150041716#3 -150041716#2 -150041716#1" busStop="-25599407"/> <!-- Elisabethenstift/Woog -->
        <walk edges="255797401#0 255797401#1 494297577#0 494297577#1 150041624#0 -526519487"/>
    </person>
    <person id="ped41" type="ped_pedestrian" depart="692.91">
        <walk edges="255797402#1 150041594#0" busStop="818872832"/> <!-- Elisabethenstift/Woog -->
        <ride busStop="448433765" lines="RH:0" intended="pt_bus_RH:0.1" depart="733.00"/> <!-- Jugendstilbad -->
        <walk edges="1244524930 689912266"/>
    </person>
    <person id="ped42" type="ped_pedestrian" depart="709.81">
        <walk edges="1185258336#3 1185258336#2 -1185258336#0 1153038902#4 715835444#2 715835444#1 4195580#2 4195580#1 4195580#0 -4144040#1 -4144040#2"/>
    </person>
    <person id="ped43" type="ped_pedestrian" depart="726.71">
        <walk edges="987109590 987109589#1 689756683 -23248118 -23248109#0 -23248109#1 -378479743#3 -378479743#2 -378479743#1 -378479743#0 700440148 255729754#2 255729754#1 255729754#0 116556689#6 1125742271 -150041716#4 150041716#4"/>
    </person>
    <person id="ped44" type="ped_pedestrian" depart="743.61">
        <walk edges="-150041716#2 150041716#3 150041716#4 1125742271 116556689#6 255729754#0 255729754#1 255729754#2 700440148 378479743#0 378479743#1 378479743#2 378479743#3 378479743#4 378479743#5 378479743#6 700236092#0 700236092#1 1125742272 984768176#1 -149518804#0"/>
    </person>
    <person id="ped45" type="ped_pedestrian" depart="760.51">
        <walk edges="-23401995#1 -149518804#3 -149518804#2 -149518804#0 -984768176#1 984768175" busStop="4734204898"/> <!-- Kongresszentrum darmstadtium -->
        <walk edges="26937083#1 26937083#0" busStop="763225186"/> <!-- Schloss -->
        <ride busStop="-25599407" lines="671:2" intended="pt_bus_671:2.1" depart="1074.00"/> <!-- Elisabethenstift/Woog -->
        <walk edges="255797401#0 255797401#1 519402125#0 -150041636#2 -150041636#1 -28230108 28230108"/>
    </person>
    <person id="ped46" type="ped_pedestrian" depart="777.41">
        <walk edges="43206409 -69990712 -43206316 -150041624#3 -150041624#2 -150041624#1 -150041624#0 150041594#0" busStop="818872832"/> <!-- Elisabethenstift/Woog -->
        <ride busStop="448433765" lines="671:1" intended="pt_bus_671:1.1" depart="1143.00"/> <!-- Jugendstilbad -->
        <walk edges="255729754#1 255729754#2 4144040#4 4144040#3 484022097 4195610#2 13858853 47492539 13858854 -24507771 -1287285290#3 1287285290#3"/>
    </person>
    <person id="ped47" type="ped_pedestrian" depart="794.31">
        <walk edges="-150041551#3 459339932#1" busStop="-25599407"/> <!-- Elisabethenstift/Woog -->
        <ride busStop="-15624443" lines="672:2" intended="pt_bus_672:2.1" depart="918.00"/> <!-- Ostbahnhof -->
        <walk edges="255797398 -1160713521 150041645#4 1162647991"/>
    </person>
    <person id="ped48" type="ped_pedestrian" depart="811.21">
        <walk edges="987109589#1 -987109589#0 -638694840#0 4213561#1 366601855 366601856 256102750#3 256105105#5 256105105#6 56028463#1 -257510647#0" busStop="763225186"/> <!-- Schloss -->
        <ride busStop="-25599407" lines="671:2" intended="pt_bus_671:2.1" depart="1074.00"/> <!-- Elisabethenstift/Woog -->
        <walk edges="459339932#1 150041551#2 150041551#1 23101679#0"/>
    </person>
    <person id="ped49" type="ped_pedestrian" depart="828.11">
        <walk edges="881694397 -150041624#1 -150041624#0 150041594#0" busStop="818872832"/> <!-- Elisabethenstift/Woog -->
        <ride busStop="448433765" lines="672:3" intended="pt_bus_672:3.1" depart="983.00"/> <!-- Jugendstilbad -->
        <walk edges="1244524930 253230759#1 253230759#0 -378479743#0 -378479743#1 -378479743#2 -378479743#3 -23248109#1 -23248109#0 23248118 -689756683 -638694840#1 -638694840#0 4213561#1 366601855 366601856 256102750#3 256105105#5 256105105#6 56028463#1"/>
    </person>
    <person id="ped50" type="ped_pedestrian" depart="845.01">
        <walk edges="-1162647992 359458213 -150041645#4 359458217#2" busStop="448433719"/> <!-- Ostbahnhof -->
        <ride busStop="448433765" lines="X69:0" intended="pt_bus_X69:0.1" depart="899.00"/> <!-- Jugendstilbad -->
        <walk edges="255729754#1 255729754#2 700440148 378479743#0 378479743#1 378479743#2 378479743#3 378479743#4 -365216932 149518793 365216929"/>
    </person>
    <person id="ped51" type="ped_pedestrian" depart="861.91">
        <walk edges="319910923#2 319910914 319910916 52414187 23401995#3"/>
    </person>
    <person id="ped53" type="ped_pedestrian" depart="895.71">
        <walk edges="-23401995#2 -23401995#1 797259708#1 150032770#6 150032770#5 150032770#2 150032770#1 150032770#0 -327864903#0 218848626#1 218848626#0 -13858859 13858859"/>
    </person>
    <person id="ped54" type="ped_pedestrian" depart="912.61">
        <walk edges="150032770#5 -150032770#6 255729814#1 255729814#0 -984768176#1 984768175" busStop="4734204898"/> <!-- Kongresszentrum darmstadtium -->
        <walk edges="26937083#1 26937083#0" busStop="763225186"/> <!-- Schloss -->
        <ride busStop="-25599407" lines="672:2" intended="pt_bus_672:2.2" depart="1282.00"/> <!-- Elisabethenstift/Woog -->
        <walk edges="459339932#1 150041551#2 150041551#1 150041551#0 715835444#4 750168166#0 750168164"/>
    </person>
    <person id="ped55" type="ped_pedestrian" depart="929.52">
        <walk edges="56447699#0 286646440 256102748 256105105#9 256102746#0 256102744 -257510647#0" busStop="763225186"/> <!-- Schloss -->
        <ride busStop="-25599407" lines="671:2" intended="pt_bus_671:2.1" depart="1074.00"/> <!-- Elisabethenstift/Woog -->
        <walk edges="255797401#0 255797401#1 494297577#0 494297577#1 150041624#0 -526519487"/>
    </person>
    <person id="ped56" type="ped_pedestrian" depart="946.42">
        <walk edges="150041699#1 -700440130#0 -700440130#1 -700440128 700440129 1290085526#0 150041594#0" busStop="818872832"/> <!-- Elisabethenstift/Woog -->
        <ride busStop="448433765" lines="RH:0" intended="pt_bus_RH:0.2" depart="1333.00"/> <!-- Jugendstilbad -->
        <walk edges="1244524930 253230759#1 253230759#0 -378479743#0 -35098345"/>
    </person>
    <person id="ped60" type="ped_pedestrian" depart="1014.02">
        <walk edges="4144040#0 4195580#0 4195580#1 4195580#2 715835444#1 23508141#1"/>
    </person>
    <person id="ped61" type="ped_pedestrian" depart="1030.92">
        <walk edges="4213557 256102749 56028463#0 56028463#1 -257510647#0" busStop="763225186"/> <!-- Schloss -->
        <ride busStop="-25599407" lines="671:4" intended="pt_bus_671:4.0" depart="1134.00"/> <!-- Elisabethenstift/Woog -->
        <walk edges="459339932#1 150041551#2 150041551#1 23101679#0 23101679#1"/>
    </person>
    <person id="ped63" type="ped_pedestrian" depart="1064.72">
        <walk edges="-1185258337 -1185258336#0 1153038902#4 715835444#2 715835444#1"/>
    </person>
    <person id="ped64" type="ped_pedestrian" depart="1081.62">
        <walk edges="572523427 150032770#2 150032770#1 150032770#0 -327864903#0 327864903#1 218848625#1 1287285290#3 1287285290#4 13858854 -47492539 -13858853 4195610#2 484022097"/>
    </person>
    <person id="ped65" type="ped_pedestrian" depart="1098.52">
        <walk edges="-700440129 1290085526#0 150041594#0" busStop="818872832"/> <!-- Elisabethenstift/Woog -->
        <ride busStop="448433765" lines="RH:0" intended="pt_bus_RH:0.2" depart="1333.00"/> <!-- Jugendstilbad -->
        <walk edges="255729754#1 255729754#2 700440148 378479743#0 378479743#1 378479743#2 378479743#3 378479743#4 378479743#5 378479743#6 700236092#0 700236092#1 1125742272 984768176#1 255729814#0 255729814#1 -150032770#6"/>
    </person>
    <person id="ped66" type="ped_pedestrian" depart="1115.42">
        <walk edges="572523427 150032770#5 -150032770#6 255729814#1 255729814#0 -984768176#1 -150032873 700236092#1 700236092#0 378479743#6 378479743#5 378479743#4 378479743#3 378479743#2 378479743#1 378479743#0 700440148 255729754#2 255729754#1 255729754#0 -255729776 715911184"/>
    </person>
    <person id="ped67" type="ped_pedestrian" depart="1132.32">
        <walk edges="-150041699#1 -700440130#0 -700440130#1 -700440128 881694397 150041624#2"/>
    </person>
    <person id="ped68" type="ped_pedestrian" depart="1149.22">
        <walk edges="-150041624#1 -150041624#0 150041594#0" busStop="818872832"/> <!-- Elisabethenstift/Woog -->
        <ride busStop="448433765" lines="RH:0" intended="pt_bus_RH:0.2" depart="1333.00"/> <!-- Jugendstilbad -->
        <walk edges="255729754#1 255729754#2 4144040#4 4144040#3 484022097 4195610#2 -409784476 409784476"/>
    </person>
    <person id="ped69" type="ped_pedestrian" depart="1166.12">
        <walk edges="4144040#3 4144040#4 255729754#2 255729754#1 255729754#0 -255729776"/>
    </person>
    <person id="ped70" type="ped_pedestrian" depart="1183.02">
        <walk edges="150041551#1 -150041551#3 255797405#1 255797402#1 150041594#0" busStop="818872832"/> <!-- Elisabethenstift/Woog -->
        <ride busStop="448433765" lines="RH:0" intended="pt_bus_RH:0.2" depart="1333.00"/> <!-- Jugendstilbad -->
        <walk edges="1244524930 253230759#1 253230759#0 -378479743#0 -378479743#1 -378479743#2 -378479743#3 -378479743#4 -378479743#5 -378479743#6 700440139 700440138 24509268"/>
    </person>
    <person id="ped72" type="ped_pedestrian" depart="1216.82">
        <walk edges="1287285290#4 -1287285290#3 539841923#0 150032863#1 149518802#0 149518802#1 150032842 528567529 -378479743#6"/>
    </person>
    <person id="ped73" type="ped_pedestrian" depart="1233.72">
        <walk edges="23508141#1 715835444#1 4195580#2 4195580#1 4195580#0 -4144040#1 -4144040#2 4144040#3 4144040#4 700440148 378479743#0 378479743#1 378479743#2 378479743#3 378479743#4 378479743#5 378479743#6 700236092#0 365217759"/>
    </person>
    <person id="ped74" type="ped_pedestrian" depart="1250.62">
        <walk edges="-378479737#0 116556689#2 116556689#3 116556689#4 116556689#5 1125742271 -150041716#4 -150041716#3 29895519#1 29895519#2 715802321 -715802321"/>
    </person>
    <person id="ped75" type="ped_pedestrian" depart="1267.52">
        <walk edges="987109589#0 987109589#1 689756683 -23248118 -23248109#0 -23248109#1 -378479743#3 -378479743#2 -378479743#1 -378479743#0 253230759#0 253230759#1 1244524930 255729797#1 255729797#0 255729804#3 255729804#0 83079953 519402126 59591191 596666653 285278284#0"/>
    </person>
    <person id="ped76" type="ped_pedestrian" depart="1284.42">
        <walk edges="148061776#1 28230108 150041636#1 150041636#2 519402125#0 255797401#1 255797401#0" busStop="-25599407"/> <!-- Elisabethenstift/Woog -->
        <ride busStop="-15624443" lines="673:2" intended="pt_bus_673:2.2" depart="1598.00"/> <!-- Ostbahnhof -->
        <walk edges="196656222#0 196656222#1 196656222#2"/>
    </person>
    <person id="ped77" type="ped_pedestrian" depart="1301.32">
        <walk edges="-23599727#0 253230759#0 700440148 4144040#4 4144040#3 4144040#2 4144040#1 4144040#0 -4144040#0 -4195580#0"/>
    </person>
    <person id="ped78" type="ped_pedestrian" depart="1318.22">
        <walk edges="-750168166#0 715835444#4 -150041551#0 -150041551#1 -150041551#3 255797405#1 255797402#1 150041594#0" busStop="818872832"/> <!-- Elisabethenstift/Woog -->
        <ride busStop="448433765" lines="672:1" intended="pt_bus_672:1.2" depart="1544.00"/> <!-- Jugendstilbad -->
        <walk edges="1244524930 253230759#1 253230759#0 -378479743#0 -378479743#1 -378479743#2 -378479743#3 -23248109#1 -23248109#0 23248118 -689756683 -638694840#1 -638694840#0 4213561#1 4213561#0 4213557 256102749 256102750#1 256102746#1 256102744"/>
    </person>
    <person id="ped79" type="ped_pedestrian" depart="1335.12">
        <walk edges="-4295817#0 -4295817#1 -4295817#3 -150041551#3 255797405#1 255797402#1 150041594#0" busStop="818872832"/> <!-- Elisabethenstift/Woog -->
        <ride busStop="448433765" lines="672:0" intended="pt_bus_672:0.2" depart="1484.00"/> <!-- Jugendstilbad -->
        <walk edges="255729754#1 255729754#2 -4144040#4 -4144040#3 -4144040#2"/>
    </person>
    <person id="ped80" type="ped_pedestrian" depart="1352.02">
        <walk edges="-150041624#2 -150041624#1 -150041624#0 150041594#0" busStop="818872832"/> <!-- Elisabethenstift/Woog -->
        <ride busStop="448433765" lines="671:0" intended="pt_bus_671:0.2" depart="1683.00"/> <!-- Jugendstilbad -->
        <walk edges="1244524930 4209642 28247400#0 28247399"/>
    </person>
    <person id="ped81" type="ped_pedestrian" depart="1368.92">
        <walk edges="-4209642 1244524930" busStop="448433765"/> <!-- Jugendstilbad -->
        <walk edges="255729754#0 116556689#6 715910743#0 715910744#0 694832101 694836606 694836603 694836605 694836604"/>
    </person>
    <person id="ped82" type="ped_pedestrian" depart="1385.82">
        <walk edges="56028463#0 56028463#1 -257510647#0" busStop="763225186"/> <!-- Schloss -->
        <ride busStop="-15624443" lines="X78:4" intended="pt_bus_X78:4.1" depart="1618.00"/> <!-- Ostbahnhof -->
        <walk edges="150041699#1 150041699#2 -150041624#2"/>
    </person>
    <person id="ped84" type="ped_pedestrian" depart="1419.62">
        <walk edges="-378491236 -59591191 519402126 83079953 255729804#0 255729804#3 255729797#0 255729797#1 1244524930 253230759#1 253230759#0 -378479743#0 -378479743#1 -378479743#2 -378479743#3 -378479743#4 -378479743#5 -378479743#6 700440139 700440138 -253230762 -256102751#0"/>
    </person>
    <person id="ped85" type="ped_pedestrian" depart="1436.52">
        <walk edges="715835444#5 715835444#4 -150041551#0 -150041551#1 -150041551#3 255797405#1 255797402#1 150041594#0" busStop="818872832"/> <!-- Elisabethenstift/Woog -->
        <ride busStop="448433765" lines="671:0" intended="pt_bus_671:0.2" depart="1683.00"/> <!-- Jugendstilbad -->
        <walk edges="1244524930 255729797#1 255729797#0 255729804#3"/>
    </person>
    <person id="ped86" type="ped_pedestrian" depart="1453.42">
        <walk edges="150032877 23508142#0 -23508141#0 -715835444#2 -715835444#3 -150041551#0 -150041551#1 4295817#3 4295817#1"/>
    </person>
    <person id="ped87" type="ped_pedestrian" depart="1470.32">
        <walk edges="458284292#2 519402126 59591191 378491236 150041636#0 150041636#1 150041636#2 519402125#0 255797401#1 255797401#0" busStop="-25599407"/> <!-- Elisabethenstift/Woog -->
        <ride busStop="-15624443" lines="X78:2" intended="pt_bus_X78:2.1" depart="1816.00"/> <!-- Ostbahnhof -->
        <walk edges="255797398 -1160713521 -359458208#2"/>
    </person>
    <person id="ped88" type="ped_pedestrian" depart="1487.22">
        <walk edges="-218848625#0 218848625#1 1287285290#3 1287285290#4 13858854 -47492539 -13858853 13858853"/>
    </person>
    <person id="ped89" type="ped_pedestrian" depart="1504.12">
        <walk edges="1287285290#4 -1287285290#3 539841923#0 150032863#1 150032863#2"/>
    </person>
    <person id="ped90" type="ped_pedestrian" depart="1521.02">
        <walk edges="365217759 700236092#1 1125742272 1287285290#0 150032863#4 319910910#0 319910910#1 319910912"/>
    </person>
    <person id="ped91" type="ped_pedestrian" depart="1537.92">
        <walk edges="886547965#1 -29895519#1 150041716#3 150041716#4 1125742271 116556689#6 255729754#0 255729754#1 255729754#2 4144040#4 4144040#3 484022097 4195610#2 13858853 47492539 13858854 -24507771 -1287285290#3 -218848625#1"/>
    </person>
    <person id="ped92" type="ped_pedestrian" depart="1554.83">
        <walk edges="1185258337 -1185258336#0 1153038902#4 715835444#3 715835444#4 750168166#0 750168166#1 -750168166#1"/>
    </person>
    <person id="ped94" type="ped_pedestrian" depart="1588.63">
        <walk edges="-359458208#2 359458217#2" busStop="448433719"/> <!-- Ostbahnhof -->
        <ride busStop="818872832" lines="X78:1" intended="pt_bus_X78:1.2" depart="1638.00"/> <!-- Elisabethenstift/Woog -->
        <ride busStop="448433765" lines="RH:0" intended="pt_bus_RH:0.3" depart="1933.00"/> <!-- Jugendstilbad -->
        <walk edges="255729754#1 255729754#2 700440148 378479743#0 378479743#1 378479743#2 378479743#3 378479743#4 378479743#5 378479743#6 700236092#0 700236092#1 1125742272 984768176#1 984768176#2 149518804#2 149518804#3"/>
    </person>
    <person id="ped97" type="ped_pedestrian" depart="1639.33">
        <walk edges="149518802#0 150032863#2 150032863#3 150032863#4 -1287285290#0 984768175" busStop="4734204898"/> <!-- Kongresszentrum darmstadtium -->
        <walk edges="26937083#1 26937083#0" busStop="763225186"/> <!-- Schloss -->
        <walk edges="257510648 56028463#1"/>
    </person>
    <person id="ped98" type="ped_pedestrian" depart="1656.23">
        <walk edges="24509268 700440138 700440139 -378479743#6 528567529 150032842 149518802#1 149518802#0 150032863#1 -539841923#0 -218848625#1 -327864903#1 -327864903#0 -150032770#0"/>
    </person>
    <person id="ped100" type="ped_pedestrian" depart="1690.03">
        <walk edges="847071794 378543238 638694840#0 638694840#1 689756683 -23248118 -23248109#0 -23248109#1 -378479743#3 -378479743#2 -378479743#1 -378479743#0 700440148"/>
    </person>
    <person id="ped102" type="ped_pedestrian" depart="1723.83">
        <walk edges="150041624#2 -150041624#1 -150041624#0 494297577#1 494297577#0 519402125#0 -150041636#2 -150041636#1 -150041636#0 -378491236"/>
    </person>
    <person id="ped103" type="ped_pedestrian" depart="1740.73">
        <walk edges="1185258336#4 -1185258336#3 1185258339 -29895520#0 -29895519#2 -29895519#1 150041716#3 150041716#4 1125742271 116556689#6 255729754#0 255729754#1 255729754#2 700440148 378479743#0 378479743#1 378479743#2 378479743#3 378479743#4 378479743#5 378479743#6 700236092#0 700236092#1 1125742272 -150032873"/>
    </person>
    <person id="ped104" type="ped_pedestrian" depart="1757.63">
        <walk edges="115485620#0 -526519487 -150041624#0 494297577#1 494297577#0 255797401#1 255797401#0" busStop="-25599407"/> <!-- Elisabethenstift/Woog -->