<?xml version='1.0' encoding='utf-8'?>
<routes xmlns:xsi="http://www.w3.org/2001/XMLSchema-instance" xsi:noNamespaceSchemaLocation="http://sumo.dlr.de/xsd/routes_file.xsd">
    <vType id="passenger" vClass="passenger" />
    <trip id="passanger0" depart="0.00" from="4019053#2" to="-150032770#1" departLane="free" type="passenger" />
    <trip id="passanger1" depart="1.00" from="-700440130#1" to="-4295817#1" departLane="free" type="passenger" />
    <trip id="passanger2" depart="2.00" from="484022097" to="4144040#3" departLane="free" type="passenger" />
    <trip id="passanger3" depart="3.00" from="700440134" to="-196656222#1" departLane="free" type="passenger" />
    <trip id="passanger4" depart="4.00" from="150032770#6" to="-150032770#2" departLane="free" type="passenger" />
    <trip id="passanger5" depart="5.00" from="-53207957" to="196656222#1" departLane="free" type="passenger" />
    <trip id="passanger6" depart="6.00" from="-150032770#2" to="-4195580#0" departLane="free" type="passenger" />
    <trip id="passanger7" depart="7.00" from="4144040#0" to="23508141#0" departLane="free" type="passenger" />
    <trip id="passanger8" depart="8.00" from="-53207957" to="378479740#1" departLane="free" type="passenger" />
    <trip id="passanger9" depart="9.00" from="59591195#2" to="-1265069360#0" departLane="free" type="passenger" />
    <trip id="passanger10" depart="10.00" from="59591195#2" to="4195580#1" departLane="free" type="passenger" />
    <trip id="passanger11" depart="11.00" from="103958941#2" to="-378479743#4" departLane="free" type="passenger" />
    <trip id="passanger12" depart="12.00" from="715835444#5" to="-715835444#2" departLane="free" type="passenger" />
    <trip id="passanger13" depart="13.00" from="-23248109#0" to="-23015831" departLane="free" type="passenger" />
    <trip id="passanger14" depart="14.00" from="700236092#0" to="378479743#2" departLane="free" type="passenger" />
    <trip id="passanger15" depart="15.00" from="59591195#2" to="4295817#3" departLane="free" type="passenger" />
    <trip id="passanger16" depart="16.00" from="23508141#1" to="75392301#0" departLane="free" type="passenger" />
    <trip id="passanger17" depart="17.00" from="1290085525#1" to="23508141#1" departLane="free" type="passenger" />
    <trip id="passanger18" depart="18.00" from="624481020#2" to="378479743#4" departLane="free" type="passenger" />
    <trip id="passanger19" depart="19.00" from="700440128" to="254075881#1" departLane="free" type="passenger" />
    <trip id="passanger20" depart="20.00" from="4295817#0" to="-150041551#0" departLane="free" type="passenger" />
    <trip id="passanger21" depart="21.00" from="-60263960" to="-700440128" departLane="free" type="passenger" />
    <trip id="passanger22" depart="22.00" from="-196656222#2" to="-484022097" departLane="free" type="passenger" />
    <trip id="passanger23" depart="23.00" from="-23508141#0" to="-624481020#4" departLane="free" type="passenger" />
    <trip id="passanger24" depart="24.00" from="395456769#1" to="103958941#0" departLane="free" type="passenger" />
    <trip id="passanger25" depart="25.00" from="1265069359" to="-4195580#2" departLane="free" type="passenger" />
    <trip id="passanger26" depart="26.00" from="-700440130#0" to="715835444#1" departLane="free" type="passenger" />
    <trip id="passanger27" depart="27.00" from="4144040#0" to="378479743#3" departLane="free" type="passenger" />
    <trip id="passanger28" depart="28.00" from="-4144040#3" to="4295817#3" departLane="free" type="passenger" />
    <trip id="passanger29" depart="29.00" from="-4144040#2" to="116556686#1" departLane="free" type="passenger" />
    <trip id="passanger30" depart="30.00" from="E0" to="38115188" departLane="free" type="passenger" />
    <trip id="passanger31" depart="31.00" from="254075881#1" to="4144040#4" departLane="free" type="passenger" />
    <trip id="passanger32" depart="32.00" from="689912267#0" to="506015829#1" departLane="free" type="passenger" />
    <trip id="passanger33" depart="33.00" from="-60263960" to="-150032770#2" departLane="free" type="passenger" />
    <trip id="passanger34" depart="34.00" from="-715835444#3" to="-624481020#1" departLane="free" type="passenger" />
    <trip id="passanger35" depart="35.00" from="-4295817#3" to="715835444#2" departLane="free" type="passenger" />
    <trip id="passanger36" depart="36.00" from="700440130#0" to="-70205228#0" departLane="free" type="passenger" />
    <trip id="passanger37" depart="37.00" from="4144040#1" to="1290085525#0" departLane="free" type="passenger" />
    <trip id="passanger38" depart="38.00" from="700440148" to="150041578" departLane="free" type="passenger" />
    <trip id="passanger39" depart="39.00" from="-700440129" to="-56163443#3" departLane="free" type="passenger" />
    <trip id="passanger40" depart="40.00" from="35574708#1" to="-624481020#1" departLane="free" type="passenger" />
    <trip id="passanger41" depart="41.00" from="378479743#2" to="700440137" departLane="free" type="passenger" />
    <trip id="passanger42" depart="42.00" from="150032770#0" to="-4295817#1" departLane="free" type="passenger" />
    <trip id="passanger43" depart="43.00" from="E2" to="196656222#2" departLane="free" type="passenger" />
    <trip id="passanger44" depart="44.00" from="-23248109#0" to="-150041551#0" departLane="free" type="passenger" />
    <trip id="passanger45" depart="45.00" from="-23508141#1" to="378479743#6" departLane="free" type="passenger" />
    <trip id="passanger46" depart="46.00" from="56163443#1" to="150032770#1" departLane="free" type="passenger" />
    <trip id="passanger47" depart="47.00" from="-182982119#1" to="116556688" departLane="free" type="passenger" />
    <trip id="passanger48" depart="48.00" from="E2" to="23015831" departLane="free" type="passenger" />
    <trip id="passanger49" depart="49.00" from="73372559" to="700440128" departLane="free" type="passenger" />
    <trip id="passanger50" depart="50.00" from="-150032770#0" to="4295817#1" departLane="free" type="passenger" />
    <trip id="passanger51" depart="51.00" from="4195580#1" to="23248109#1" departLane="free" type="passenger" />
    <trip id="passanger52" depart="52.00" from="-700440130#0" to="38115188" departLane="free" type="passenger" />
    <trip id="passanger53" depart="53.00" from="-23508224" to="150032770#5" departLane="free" type="passenger" />
    <trip id="passanger54" depart="54.00" from="150041579#0" to="715835444#4" departLane="free" type="passenger" />
    <trip id="passanger55" depart="55.00" from="700440130#0" to="-624481020#1" departLane="free" type="passenger" />
    <trip id="passanger56" depart="56.00" from="214812786" to="-4144040#1" departLane="free" type="passenger" />
    <trip id="passanger57" depart="57.00" from="700440148" to="700440129" departLane="free" type="passenger" />
    <trip id="passanger58" depart="58.00" from="-70205228#2" to="38115188" departLane="free" type="passenger" />
    <trip id="passanger59" depart="59.00" from="378479743#6" to="-378479743#4" departLane="free" type="passenger" />
    <trip id="passanger60" depart="60.00" from="506015829#1" to="23248109#1" departLane="free" type="passenger" />
    <trip id="passanger61" depart="61.00" from="53207959#1" to="23015831" departLane="free" type="passenger" />
    <trip id="passanger62" depart="62.00" from="-1265069358#1" to="-70205228#2" departLane="free" type="passenger" />
    <trip id="passanger63" depart="63.00" from="-150032770#1" to="70205228#2" departLane="free" type="passenger" />
    <trip id="passanger64" depart="64.00" from="700440130#1" to="624481020#2" departLane="free" type="passenger" />
    <trip id="passanger65" depart="65.00" from="-715835444#2" to="-150041551#3" departLane="free" type="passenger" />
    <trip id="passanger66" depart="66.00" from="700440130#1" to="715835444#3" departLane="free" type="passenger" />
    <trip id="passanger67" depart="67.00" from="-23015831" to="150041593" departLane="free" type="passenger" />
    <trip id="passanger68" depart="68.00" from="-196656222#0" to="492925920#1" departLane="free" type="passenger" />
    <trip id="passanger69" depart="69.00" from="506015829#1" to="-23508224" departLane="free" type="passenger" />
    <trip id="passanger70" depart="70.00" from="150041594#0" to="23508141#1" departLane="free" type="passenger" />
    <trip id="passanger71" depart="71.00" from="-700440129" to="700440130#0" departLane="free" type="passenger" />
    <trip id="passanger72" depart="72.00" from="150041551#0" to="-4195580#2" departLane="free" type="passenger" />
    <trip id="passanger73" depart="73.00" from="23508142#0" to="4295817#3" departLane="free" type="passenger" />
    <trip id="passanger74" depart="74.00" from="-4295817#1" to="-700440136" departLane="free" type="passenger" />
    <trip id="passanger75" depart="75.00" from="E2" to="395456769#0" departLane="free" type="passenger" />
    <trip id="passanger76" depart="76.00" from="150041551#2" to="214812786" departLane="free" type="passenger" />
    <trip id="passanger77" depart="77.00" from="-378479743#0" to="-4295817#3" departLane="free" type="passenger" />
    <trip id="passanger78" depart="78.00" from="103958941#0" to="378479740#1" departLane="free" type="passenger" />
    <trip id="passanger79" depart="79.00" from="-60263960" to="-4295817#1" departLane="free" type="passenger" />
    <trip id="passanger80" depart="80.00" from="-196656222#0" to="378479743#6" departLane="free" type="passenger" />
    <trip id="passanger81" depart="81.00" from="-60263960" to="700440139" departLane="free" type="passenger" />
    <trip id="passanger82" depart="82.00" from="700236093" to="-150041594#1" departLane="free" type="passenger" />
    <trip id="passanger83" depart="83.00" from="-624481020#1" to="4144040#1" departLane="free" type="passenger" />
    <trip id="passanger84" depart="84.00" from="-484022097" to="-378479743#0" departLane="free" type="passenger" />
    <trip id="passanger85" depart="85.00" from="715835444#1" to="24509268" departLane="free" type="passenger" />
    <trip id="passanger86" depart="86.00" from="150041594#0" to="53207959#1" departLane="free" type="passenger" />
    <trip id="passanger87" depart="87.00" from="59591195#2" to="-4144040#4" departLane="free" type="passenger" />
    <trip id="passanger88" depart="88.00" from="-23248109#1" to="150032770#5" departLane="free" type="passenger" />
    <trip id="passanger89" depart="89.00" from="150041551#0" to="150041579#0" departLane="free" type="passenger" />
    <trip id="passanger90" depart="90.00" from="44973978" to="4144040#2" departLane="free" type="passenger" />
    <trip id="passanger91" depart="91.00" from="881694399" to="-23015831" departLane="free" type="passenger" />
    <trip id="passanger92" depart="92.00" from="150032770#1" to="-715835444#2" departLane="free" type="passenger" />
    <trip id="passanger93" depart="93.00" from="700440128" to="-56163443#3" departLane="free" type="passenger" />
    <trip id="passanger94" depart="94.00" from="-4195580#2" to="150041551#1" departLane="free" type="passenger" />
    <trip id="passanger95" depart="95.00" from="150032770#6" to="-624481020#4" departLane="free" type="passenger" />
    <trip id="passanger96" depart="96.00" from="-624481020#4" to="70205228#1" departLane="free" type="passenger" />
    <trip id="passanger97" depart="97.00" from="150041565" to="700440128" departLane="free" type="passenger" />
    <trip id="passanger98" depart="98.00" from="24509268" to="-150041551#1" departLane="free" type="passenger" />
    <trip id="passanger99" depart="99.00" from="E2" to="624481020#4" departLane="free" type="passenger" />
    <trip id="passanger100" depart="100.00" from="73372559" to="70205228#1" departLane="free" type="passenger" />
    <trip id="passanger101" depart="101.00" from="700236092#0" to="-378479743#6" departLane="free" type="passenger" />
    <trip id="passanger102" depart="102.00" from="196656222#0" to="-4295817#0" departLane="free" type="passenger" />
    <trip id="passanger103" depart="103.00" from="150032770#1" to="-150041551#3" departLane="free" type="passenger" />
    <trip id="passanger104" depart="104.00" from="1290085525#1" to="881694399" departLane="free" type="passenger" />
    <trip id="passanger105" depart="105.00" from="-700440129" to="53207959#1" departLane="free" type="passenger" />
    <trip id="passanger106" depart="106.00" from="150041579#0" to="150032770#1" departLane="free" type="passenger" />
    <trip id="passanger107" depart="107.00" from="715835444#5" to="E2" departLane="free" type="passenger" />
    <trip id="passanger108" depart="108.00" from="254075881#1" to="4295817#0" departLane="free" type="passenger" />
    <trip id="passanger109" depart="109.00" from="-378479743#6" to="-700440130#0" departLane="free" type="passenger" />
    <trip id="passanger110" depart="110.00" from="73372559" to="254075881#1" departLane="free" type="passenger" />
    <trip id="passanger111" depart="111.00" from="23508142#0" to="44973978" departLane="free" type="passenger" />
    <trip id="passanger112" depart="112.00" from="-150041594#1" to="35574708#1" departLane="free" type="passenger" />
    <trip id="passanger113" depart="113.00" from="214812786" to="700236092#1" departLane="free" type="passenger" />
    <trip id="passanger114" depart="114.00" from="-4144040#1" to="715835444#5" departLane="free" type="passenger" />
    <trip id="passanger115" depart="115.00" from="-196656222#2" to="-4144040#3" departLane="free" type="passenger" />
    <trip id="passanger116" depart="116.00" from="378479743#4" to="4144040#2" departLane="free" type="passenger" />
    <trip id="passanger117" depart="117.00" from="-624481020#1" to="-23508141#1" departLane="free" type="passenger" />
    <trip id="passanger118" depart="118.00" from="700440134" to="-56163443#3" departLane="free" type="passenger" />
    <trip id="passanger119" depart="119.00" from="378479743#4" to="378479743#4" departLane="free" type="passenger" />
    <trip id="passanger120" depart="120.00" from="150032770#6" to="35574708#1" departLane="free" type="passenger" />
    <trip id="passanger121" depart="121.00" from="23248109#1" to="715835444#1" departLane="free" type="passenger" />
    <trip id="passanger122" depart="122.00" from="-4295817#1" to="4295817#0" departLane="free" type="passenger" />
    <trip id="passanger123" depart="123.00" from="-624481020#1" to="1290085525#0" departLane="free" type="passenger" />
    <trip id="passanger124" depart="124.00" from="4144040#4" to="-700440130#0" departLane="free" type="passenger" />
    <trip id="passanger125" depart="125.00" from="-715835444#3" to="484022097" departLane="free" type="passenger" />
    <trip id="passanger126" depart="126.00" from="-196656222#1" to="150041578" departLane="free" type="passenger" />
    <trip id="passanger127" depart="127.00" from="E2" to="E2" departLane="free" type="passenger" />
    <trip id="passanger128" depart="128.00" from="-196656222#1" to="-4295817#0" departLane="free" type="passenger" />
    <trip id="passanger129" depart="129.00" from="-700440129" to="715835444#1" departLane="free" type="passenger" />
    <trip id="passanger130" depart="130.00" from="700440130#1" to="700440130#1" departLane="free" type="passenger" />
    <trip id="passanger131" depart="131.00" from="1265069359" to="-378479743#5" departLane="free" type="passenger" />
    <trip id="passanger132" depart="132.00" from="624481020#4" to="4195580#2" departLane="free" type="passenger" />
    <trip id="passanger133" depart="133.00" from="378479753" to="881694399" departLane="free" type="passenger" />
    <trip id="passanger134" depart="134.00" from="4144040#1" to="-1265069360#0" departLane="free" type="passenger" />
    <trip id="passanger135" depart="135.00" from="624481020#0" to="-700440130#0" departLane="free" type="passenger" />
    <trip id="passanger136" depart="136.00" from="4144040#3" to="715835444#2" departLane="free" type="passenger" />
    <trip id="passanger137" depart="137.00" from="-378479743#3" to="-23508141#0" departLane="free" type="passenger" />
    <trip id="passanger138" depart="138.00" from="-23508141#1" to="23508142#0" departLane="free" type="passenger" />
    <trip id="passanger139" depart="139.00" from="-700440130#1" to="378479743#2" departLane="free" type="passenger" />
    <trip id="passanger140" depart="140.00" from="43135644#0" to="-4195580#1" departLane="free" type="passenger" />
    <trip id="passanger141" depart="141.00" from="395456769#1" to="-624481020#1" departLane="free" type="passenger" />
    <trip id="passanger142" depart="142.00" from="196656222#0" to="700440139" departLane="free" type="passenger" />
    <trip id="passanger143" depart="143.00" from="700236092#0" to="-196656222#2" departLane="free" type="passenger" />
    <trip id="passanger144" depart="144.00" from="150041551#0" to="-624481020#4" departLane="free" type="passenger" />
    <trip id="passanger145" depart="145.00" from="-1265069358#1" to="506015829#1" departLane="free" type="passenger" />
    <trip id="passanger146" depart="146.00" from="395456769#1" to="-624481020#0" departLane="free" type="passenger" />
    <trip id="passanger147" depart="147.00" from="492925919" to="23508141#1" departLane="free" type="passenger" />
    <trip id="passanger148" depart="148.00" from="150041551#0" to="-1265069360#0" departLane="free" type="passenger" />
    <trip id="passanger149" depart="149.00" from="-196656222#1" to="700440131" departLane="free" type="passenger" />
    <trip id="passanger150" depart="150.00" from="700440138" to="23508141#0" departLane="free" type="passenger" />
    <trip id="passanger151" depart="151.00" from="624481020#4" to="35574708#1" departLane="free" type="passenger" />
    <trip id="passanger152" depart="152.00" from="-378479743#5" to="-23508224" departLane="free" type="passenger" />
    <trip id="passanger153" depart="153.00" from="-715835444#2" to="700440137" departLane="free" type="passenger" />
    <trip id="passanger154" depart="154.00" from="59591195#0" to="700440128" departLane="free" type="passenger" />
    <trip id="passanger155" depart="155.00" from="700440137" to="-4195580#2" departLane="free" type="passenger" />
    <trip id="passanger156" depart="156.00" from="-624481020#4" to="-23248109#0" departLane="free" type="passenger" />
    <trip id="passanger157" depart="157.00" from="53207959#1" to="700440131" departLane="free" type="passenger" />
    <trip id="passanger158" depart="158.00" from="150032770#2" to="378479743#5" departLane="free" type="passenger" />
    <trip id="passanger159" depart="159.00" from="-378479743#6" to="70205228#2" departLane="free" type="passenger" />
    <trip id="passanger160" depart="160.00" from="700440128" to="75392301#0" departLane="free" type="passenger" />
    <trip id="passanger161" depart="161.00" from="59591195#2" to="700440130#1" departLane="free" type="passenger" />
    <trip id="passanger162" depart="162.00" from="-150032770#2" to="43135644#0" departLane="free" type="passenger" />
    <trip id="passanger163" depart="163.00" from="-881694399" to="70205228#2" departLane="free" type="passenger" />
    <trip id="passanger164" depart="164.00" from="59591195#1" to="700440128" departLane="free" type="passenger" />
    <trip id="passanger165" depart="165.00" from="59591195#2" to="-624481020#1" departLane="free" type="passenger" />
    <trip id="passanger166" depart="166.00" from="53207959#3" to="-23248109#1" departLane="free" type="passenger" />
    <trip id="passanger167" depart="167.00" from="700440129" to="700236093" departLane="free" type="passenger" />
    <trip id="passanger168" depart="168.00" from="-56163443#3" to="60263960" departLane="free" type="passenger" />
    <trip id="passanger169" depart="169.00" from="150041579#2" to="-700440130#1" departLane="free" type="passenger" />
    <trip id="passanger170" depart="170.00" from="59591195#0" to="-4295817#3" departLane="free" type="passenger" />
    <trip id="passanger171" depart="171.00" from="-150032770#2" to="-4144040#4" departLane="free" type="passenger" />
    <trip id="passanger172" depart="172.00" from="-881694399" to="700440128" departLane="free" type="passenger" />
    <trip id="passanger173" depart="173.00" from="73372559" to="-624481020#4" departLane="free" type="passenger" />
    <trip id="passanger174" depart="174.00" from="4019053#2" to="1290085525#1" departLane="free" type="passenger" />
    <trip id="passanger175" depart="175.00" from="75392301#1" to="23248109#0" departLane="free" type="passenger" />
    <trip id="passanger176" depart="176.00" from="715835444#2" to="-23508141#0" departLane="free" type="passenger" />
    <trip id="passanger177" depart="177.00" from="73372559" to="-4144040#1" departLane="free" type="passenger" />
    <trip id="passanger178" depart="178.00" from="715913363#2" to="-624481020#1" departLane="free" type="passenger" />
    <trip id="passanger179" depart="179.00" from="-23508141#1" to="150032770#5" departLane="free" type="passenger" />
    <trip id="passanger180" depart="180.00" from="44973978" to="-70205228#0" departLane="free" type="passenger" />
    <trip id="passanger181" depart="181.00" from="378479743#6" to="196656222#2" departLane="free" type="passenger" />
    <trip id="passanger182" depart="182.00" from="1290085526#0" to="254075881#1" departLane="free" type="passenger" />
    <trip id="passanger183" depart="183.00" from="-689912267#0" to="4195610#0" departLane="free" type="passenger" />
    <trip id="passanger184" depart="184.00" from="-1265069358#1" to="70205228#1" departLane="free" type="passenger" />
    <trip id="passanger185" depart="185.00" from="23508141#1" to="4295817#0" departLane="free" type="passenger" />
    <trip id="passanger186" depart="186.00" from="492925919" to="4144040#2" departLane="free" type="passenger" />
    <trip id="passanger187" depart="187.00" from="1265069358#1" to="-150041594#1" departLane="free" type="passenger" />
    <trip id="passanger188" depart="188.00" from="4144040#3" to="-715835444#1" departLane="free" type="passenger" />
    <trip id="passanger189" depart="189.00" from="-715835444#3" to="700236092#0" departLane="free" type="passenger" />
    <trip id="passanger190" depart="190.00" from="43135644#0" to="-700440130#0" departLane="free" type="passenger" />
    <trip id="passanger191" depart="191.00" from="-715835444#2" to="149518769#1" departLane="free" type="passenger" />
    <trip id="passanger192" depart="192.00" from="150032770#1" to="-700440129" departLane="free" type="passenger" />
    <trip id="passanger193" depart="193.00" from="-378479743#1" to="150032770#1" departLane="free" type="passenger" />
    <trip id="passanger194" depart="194.00" from="715835444#2" to="4144040#3" departLane="free" type="passenger" />
    <trip id="passanger195" depart="195.00" from="700440138" to="378479743#4" departLane="free" type="passenger" />
    <trip id="passanger196" depart="196.00" from="-715835444#1" to="23508141#1" departLane="free" type="passenger" />
    <trip id="passanger197" depart="197.00" from="-1265069358#1" to="-700440128" departLane="free" type="passenger" />
    <trip id="passanger198" depart="198.00" from="150041551#1" to="254075881#1" departLane="free" type="passenger" />
    <trip id="passanger199" depart="199.00" from="4144040#1" to="150041579#0" departLane="free" type="passenger" />
    <trip id="passanger200" depart="200.00" from="150041565" to="-4295817#0" departLane="free" type="passenger" />
    <trip id="passanger201" depart="201.00" from="150041594#0" to="700440138" departLane="free" type="passenger" />
    <trip id="passanger202" depart="202.00" from="59591195#0" to="-4144040#0" departLane="free" type="passenger" />
    <trip id="passanger203" depart="203.00" from="-23015831" to="214812786" departLane="free" type="passenger" />
    <trip id="passanger204" depart="204.00" from="395456769#0" to="-715835444#1" departLane="free" type="passenger" />
    <trip id="passanger205" depart="205.00" from="624481020#0" to="484022097" departLane="free" type="passenger" />
    <trip id="passanger206" depart="206.00" from="4195580#0" to="-4295817#3" departLane="free" type="passenger" />
    <trip id="passanger207" depart="207.00" from="-4295817#0" to="-150032770#1" departLane="free" type="passenger" />
    <trip id="passanger208" depart="208.00" from="-624481020#4" to="150041580" departLane="free" type="passenger" />
    <trip id="passanger209" depart="209.00" from="700236092#0" to="-182982119#1" departLane="free" type="passenger" />
    <trip id="passanger210" depart="210.00" from="150032770#5" to="378479743#6" departLane="free" type="passenger" />
    <trip id="passanger211" depart="211.00" from="-4195580#2" to="4195580#1" departLane="free" type="passenger" />
    <trip id="passanger212" depart="212.00" from="196656222#1" to="-53207957" departLane="free" type="passenger" />
    <trip id="passanger213" depart="213.00" from="4144040#2" to="-1265069358#1" departLane="free" type="passenger" />
    <trip id="passanger214" depart="214.00" from="492925920#1" to="506013711#1" departLane="free" type="passenger" />
    <trip id="passanger215" depart="215.00" from="-23508141#1" to="150032770#2" departLane="free" type="passenger" />
    <trip id="passanger216" depart="216.00" from="-4144040#4" to="715835444#5" departLane="free" type="passenger" />
    <trip id="passanger217" depart="217.00" from="23248109#0" to="-150041551#0" departLane="free" type="passenger" />
    <trip id="passanger218" depart="218.00" from="-624481020#4" to="700236092#0" departLane="free" type="passenger" />
    <trip id="passanger219" depart="219.00" from="150041579#2" to="59591195#0" departLane="free" type="passenger" />
    <trip id="passanger220" depart="220.00" from="4144040#4" to="881694399" departLane="free" type="passenger" />
    <trip id="passanger221" depart="221.00" from="378479743#4" to="715835444#4" departLane="free" type="passenger" />
    <trip id="passanger222" depart="222.00" from="700440134" to="378479743#3" departLane="free" type="passenger" />
    <trip id="passanger223" depart="223.00" from="43135644#0" to="196656222#1" departLane="free" type="passenger" />
    <trip id="passanger224" depart="224.00" from="624481020#2" to="23508141#1" departLane="free" type="passenger" />
    <trip id="passanger225" depart="225.00" from="700440137" to="44973978" departLane="free" type="passenger" />
    <trip id="passanger226" depart="226.00" from="150041594#0" to="-624481020#0" departLane="free" type="passenger" />
    <trip id="passanger227" depart="227.00" from="-624481020#4" to="38115188" departLane="free" type="passenger" />
    <trip id="passanger228" depart="228.00" from="506015829#1" to="214812788#2" departLane="free" type="passenger" />
    <trip id="passanger229" depart="229.00" from="395456768" to="-624481020#4" departLane="free" type="passenger" />
    <trip id="passanger230" depart="230.00" from="-196656222#1" to="-700440128" departLane="free" type="passenger" />
    <trip id="passanger231" depart="231.00" from="-700440130#0" to="-70205228#1" departLane="free" type="passenger" />
    <trip id="passanger232" depart="232.00" from="23508142#0" to="-378479743#1" departLane="free" type="passenger" />
    <trip id="passanger233" depart="233.00" from="-60263960" to="4195580#1" departLane="free" type="passenger" />
    <trip id="passanger234" depart="234.00" from="4295817#1" to="-150041565" departLane="free" type="passenger" />
    <trip id="passanger235" depart="235.00" from="150032770#2" to="23508141#0" departLane="free" type="passenger" />
    <trip id="passanger236" depart="236.00" from="150032770#5" to="-4195580#2" departLane="free" type="passenger" />
    <trip id="passanger237" depart="237.00" from="150032770#6" to="700440138" departLane="free" type="passenger" />
    <trip id="passanger238" depart="238.00" from="378479743#2" to="4195580#1" departLane="free" type="passenger" />
    <trip id="passanger239" depart="239.00" from="700236093" to="506013711#1" departLane="free" type="passenger" />
    <trip id="passanger240" depart="240.00" from="1290085525#1" to="-1265069360#0" departLane="free" type="passenger" />
    <trip id="passanger241" depart="241.00" from="116556688" to="484022097" departLane="free" type="passenger" />
    <trip id="passanger242" depart="242.00" from="700236092#1" to="715835444#4" departLane="free" type="passenger" />
    <trip id="passanger243" depart="243.00" from="150032770#6" to="44973978" departLane="free" type="passenger" />
    <trip id="passanger244" depart="244.00" from="23508224" to="378479743#1" departLane="free" type="passenger" />
    <trip id="passanger245" depart="245.00" from="-53207957" to="-4295817#1" departLane="free" type="passenger" />
    <trip id="passanger246" depart="246.00" from="150041551#2" to="-150032770#2" departLane="free" type="passenger" />
    <trip id="passanger247" depart="247.00" from="103958941#0" to="4144040#3" departLane="free" type="passenger" />
    <trip id="passanger248" depart="248.00" from="150032770#1" to="-378479743#6" departLane="free" type="passenger" />
    <trip id="passanger249" depart="249.00" from="150041593" to="-23508224" departLane="free" type="passenger" />
    <trip id="passanger250" depart="250.00" from="395456768" to="-150032770#1" departLane="free" type="passenger" />
    <trip id="passanger251" depart="251.00" from="149518769#1" to="23508224" departLane="free" type="passenger" />
    <trip id="passanger252" depart="252.00" from="-150032770#2" to="395456768" departLane="free" type="passenger" />
    <trip id="passanger253" depart="253.00" from="-378479743#3" to="150041578" departLane="free" type="passenger" />
    <trip id="passanger254" depart="254.00" from="-150041551#3" to="116556686#1" departLane="free" type="passenger" />
    <trip id="passanger255" depart="255.00" from="-484022097" to="-70205228#2" departLane="free" type="passenger" />
    <trip id="passanger256" depart="256.00" from="506015829#1" to="116556686#1" departLane="free" type="passenger" />