<?xml version='1.0' encoding='utf-8'?>
<routes xmlns:xsi="http://www.w3.org/2001/XMLSchema-instance" xsi:noNamespaceSchemaLocation="http://sumo.dlr.de/xsd/routes_file.xsd">
    <person id="pedestrian0" depart="0.00" departLane="free">
        <walk from="285188051#1" to="-1185258340#0" />
    </person>
    <person id="pedestrian1" depart="1.00" departLane="free">
        <walk from="-56015406#1" to="-4144040#4" />
    </person>
    <person id="pedestrian2" depart="2.00" departLane="free">
        <walk from="378479743#4" to="319910933#0" />
    </person>
    <person id="pedestrian3" depart="3.00" departLane="free">
        <walk from="694832101" to="-150041689" />
    </person>
    <person id="pedestrian4" depart="4.00" departLane="free">
        <walk from="1312670616" to="-1244524929" />
    </person>
    <person id="pedestrian5" depart="5.00" departLane="free">
        <walk from="-4144040#1" to="150041716#3" />
    </person>
    <person id="pedestrian6" depart="6.00" departLane="free">
        <walk from="-1185258342" to="-365216934" />
    </person>
    <person id="pedestrian7" depart="7.00" departLane="free">
        <walk from="29895519#2" to="23510371" />
    </person>
    <person id="pedestrian8" depart="8.00" departLane="free">
        <walk from="-4144040#2" to="256102750#2" />
    </person>
    <person id="pedestrian9" depart="9.00" departLane="free">
        <walk from="465884703#1" to="-115485620#0" />
    </person>
    <person id="pedestrian10" depart="10.00" departLane="free">
        <walk from="459339932#1" to="359458205" />
    </person>
    <person id="pedestrian11" depart="11.00" departLane="free">
        <walk from="-750168167" to="-285188051#2" />
    </person>
    <person id="pedestrian12" depart="12.00" departLane="free">
        <walk from="884145210#0" to="-750168166#0" />
    </person>
    <person id="pedestrian13" depart="13.00" departLane="free">
        <walk from="-150041716#0" to="-150041716#3" />
    </person>
    <person id="pedestrian14" depart="14.00" departLane="free">
        <walk from="56015406#0" to="256105105#8" />
    </person>
    <person id="pedestrian15" depart="15.00" departLane="free">
        <walk from="465884703#0" to="378479743#0" />
    </person>
    <person id="pedestrian16" depart="16.00" departLane="free">
        <walk from="23508141#0" to="984768176#1" />
    </person>
    <person id="pedestrian17" depart="17.00" departLane="free">
        <walk from="1153038902#4" to="253230759#0" />
    </person>
    <person id="pedestrian18" depart="18.00" departLane="free">
        <walk from="50507098#0" to="28230108" />
    </person>
    <person id="pedestrian19" depart="19.00" departLane="free">
        <walk from="563630394#0" to="255797405#1" />
    </person>
    <person id="pedestrian20" depart="20.00" departLane="free">
        <walk from="359458208#2" to="-148061776#0" />
    </person>
    <person id="pedestrian21" depart="21.00" departLane="free">
        <walk from="-4195580#2" to="-624481020#1" />
    </person>
    <person id="pedestrian22" depart="22.00" departLane="free">
        <walk from="-150041636#1" to="-4295817#1" />
    </person>
    <person id="pedestrian23" depart="23.00" departLane="free">
        <walk from="-218848625#1" to="-563630392#0" />
    </person>
    <person id="pedestrian24" depart="24.00" departLane="free">
        <walk from="285188050" to="-987109590" />
    </person>
    <person id="pedestrian25" depart="25.00" departLane="free">
        <walk from="-E1.13" to="-378479743#4" />
    </person>
    <person id="pedestrian26" depart="26.00" departLane="free">
        <walk from="-53207954#1" to="750168165" />
    </person>
    <person id="pedestrian27" depart="27.00" departLane="free">
        <walk from="29895519#1" to="257510648" />
    </person>
    <person id="pedestrian28" depart="28.00" departLane="free">
        <walk from="-29895520#3" to="377601585" />
    </person>
    <person id="pedestrian29" depart="29.00" departLane="free">
        <walk from="-29895519#2" to="115485617" />
    </person>
    <person id="pedestrian30" depart="30.00" departLane="free">
        <walk from="E3" to="285188051#1" />
    </person>
    <person id="pedestrian31" depart="31.00" departLane="free">
        <walk from="255729754#1" to="327864899" />
    </person>
    <person id="pedestrian32" depart="32.00" departLane="free">
        <walk from="539841923#0" to="4213557" />
    </person>
    <person id="pedestrian33" depart="33.00" departLane="free">
        <walk from="-4209642" to="-1287285290#1" />
    </person>
    <person id="pedestrian34" depart="34.00" departLane="free">
        <walk from="-715835444#1" to="-539841923#0" />
    </person>
    <person id="pedestrian35" depart="35.00" departLane="free">
        <walk from="-378479743#5" to="750404423" />
    </person>
    <person id="pedestrian36" depart="36.00" departLane="free">
        <walk from="624481020#1" to="-715802321" />
    </person>
    <person id="pedestrian37" depart="37.00" departLane="free">
        <walk from="29895520#2" to="1185258338#0" />
    </person>
    <person id="pedestrian38" depart="38.00" departLane="free">
        <walk from="700440139" to="150032863#0" />
    </person>
    <person id="pedestrian39" depart="39.00" departLane="free">
        <walk from="-526519487" to="-47492539" />
    </person>
    <person id="pedestrian40" depart="40.00" departLane="free">
        <walk from="255729797#1" to="-50507110" />
    </person>
    <person id="pedestrian41" depart="41.00" departLane="free">
        <walk from="256102749" to="694836606" />
    </person>
    <person id="pedestrian42" depart="42.00" departLane="free">
        <walk from="1185258340#0" to="-4144040#2" />
    </person>
    <person id="pedestrian43" depart="43.00" departLane="free">
        <walk from="E9" to="185104104" />
    </person>
    <person id="pedestrian44" depart="44.00" departLane="free">
        <walk from="-150041699#2" to="-149518798" />
    </person>
    <person id="pedestrian45" depart="45.00" departLane="free">
        <walk from="-23248109#1" to="28247400#2" />
    </person>
    <person id="pedestrian46" depart="46.00" departLane="free">
        <walk from="439271815#1" to="1312670616" />
    </person>
    <person id="pedestrian47" depart="47.00" departLane="free">
        <walk from="-150041551#0" to="115485620#0" />
    </person>
    <person id="pedestrian48" depart="48.00" departLane="free">
        <walk from="E7.20" to="23101679#1" />
    </person>
    <person id="pedestrian49" depart="49.00" departLane="free">
        <walk from="957138676#2" to="563630393" />
    </person>
    <person id="pedestrian50" depart="50.00" departLane="free">
        <walk from="-1162647992" to="365216936#1" />
    </person>
    <person id="pedestrian51" depart="51.00" departLane="free">
        <walk from="327864898" to="23508141#0" />
    </person>
    <person id="pedestrian52" depart="52.00" departLane="free">
        <walk from="-53207954#1" to="285188051#2" />
    </person>
    <person id="pedestrian53" depart="53.00" departLane="free">
        <walk from="-23248118" to="149518793" />
    </person>
    <person id="pedestrian54" depart="54.00" departLane="free">
        <walk from="150032812#1" to="881694398" />
    </person>
    <person id="pedestrian55" depart="55.00" departLane="free">
        <walk from="624481020#1" to="-50507110" />
    </person>
    <person id="pedestrian56" depart="56.00" departLane="free">
        <walk from="150041716#0" to="-35098345" />
    </person>
    <person id="pedestrian57" depart="57.00" departLane="free">
        <walk from="700440138" to="58448723" />
    </person>
    <person id="pedestrian58" depart="58.00" departLane="free">
        <walk from="-689756683" to="285188051#1" />
    </person>
    <person id="pedestrian59" depart="59.00" departLane="free">
        <walk from="257510648" to="-285188051#0" />
    </person>
    <person id="pedestrian60" depart="60.00" departLane="free">
        <walk from="4144040#3" to="23508142#0" />
    </person>
    <person id="pedestrian61" depart="61.00" departLane="free">
        <walk from="4213561#1" to="23248118" />
    </person>
    <person id="pedestrian62" depart="62.00" departLane="free">
        <walk from="-1153020821" to="-715910744#0" />
    </person>
    <person id="pedestrian63" depart="63.00" departLane="free">
        <walk from="-1185258337" to="715910744#1" />
    </person>
    <person id="pedestrian64" depart="64.00" departLane="free">
        <walk from="624481020#4" to="50507110" />
    </person>
    <person id="pedestrian65" depart="65.00" departLane="free">
        <walk from="-700440128" to="-150032770#5" />
    </person>
    <person id="pedestrian66" depart="66.00" departLane="free">
        <walk from="624481020#2" to="797259708#1" />
    </person>
    <person id="pedestrian67" depart="67.00" departLane="free">
        <walk from="-150041682" to="150041636#0" />
    </person>
    <person id="pedestrian68" depart="68.00" departLane="free">
        <walk from="-150041594#1" to="4144040#2" />
    </person>
    <person id="pedestrian69" depart="69.00" departLane="free">
        <walk from="4195580#0" to="-24507771" />
    </person>
    <person id="pedestrian70" depart="70.00" departLane="free">
        <walk from="150041576#1" to="24509268" />
    </person>
    <person id="pedestrian71" depart="71.00" departLane="free">
        <walk from="-526519487" to="585579893" />
    </person>
    <person id="pedestrian72" depart="72.00" departLane="free">
        <walk from="13755982" to="-378479743#6" />
    </person>
    <person id="pedestrian73" depart="73.00" departLane="free">
        <walk from="23508142#0" to="378479743#0" />
    </person>
    <person id="pedestrian74" depart="74.00" departLane="free">
        <walk from="-366601856" to="-700440130#0" />
    </person>
    <person id="pedestrian75" depart="75.00" departLane="free">
        <walk from="E7" to="29895519#2" />
    </person>
    <person id="pedestrian76" depart="76.00" departLane="free">
        <walk from="149518802#0" to="218848625#1" />
    </person>
    <person id="pedestrian77" depart="77.00" departLane="free">
        <walk from="-23508142#0" to="-4195580#0" />
    </person>
    <person id="pedestrian78" depart="78.00" departLane="free">
        <walk from="-750168166#1" to="256102750#1" />
    </person>
    <person id="pedestrian79" depart="79.00" departLane="free">
        <walk from="-4209642" to="-4144040#2" />
    </person>
    <person id="pedestrian80" depart="80.00" departLane="free">
        <walk from="-150041624#0" to="283117346#0" />
    </person>
    <person id="pedestrian81" depart="81.00" departLane="free">
        <walk from="-4209642" to="700236092#1" />
    </person>
    <person id="pedestrian82" depart="82.00" departLane="free">
        <walk from="563630393" to="-150041624#0" />
    </person>
    <person id="pedestrian83" depart="83.00" departLane="free">
        <walk from="-4305021#1" to="319910922" />
    </person>
    <person id="pedestrian84" depart="84.00" departLane="free">
        <walk from="-378491236" to="-256102751#0" />
    </person>
    <person id="pedestrian85" depart="85.00" departLane="free">
        <walk from="750168164" to="255797401#1" />
    </person>
    <person id="pedestrian86" depart="86.00" departLane="free">
        <walk from="150041551#2" to="4305021#0" />
    </person>
    <person id="pedestrian87" depart="87.00" departLane="free">
        <walk from="465884703#0" to="-359458208#2" />
    </person>
    <person id="pedestrian88" depart="88.00" departLane="free">
        <walk from="-150041716#3" to="148061776#0" />
    </person>
    <person id="pedestrian89" depart="89.00" departLane="free">
        <walk from="13755982" to="150032866" />
    </person>
    <person id="pedestrian90" depart="90.00" departLane="free">
        <walk from="377601585" to="319910923#1" />
    </person>
    <person id="pedestrian91" depart="91.00" departLane="free">
        <walk from="E1.13" to="-182982119#1" />
    </person>
    <person id="pedestrian92" depart="92.00" departLane="free">
        <walk from="1185258343" to="-750168167" />
    </person>
    <person id="pedestrian93" depart="93.00" departLane="free">
        <walk from="563630394#0" to="-478347392#0" />
    </person>
    <person id="pedestrian94" depart="94.00" departLane="free">
        <walk from="-359458208#1" to="150032770#5" />
    </person>
    <person id="pedestrian95" depart="95.00" departLane="free">
        <walk from="1312670616" to="-563630392#1" />
    </person>
    <person id="pedestrian96" depart="96.00" departLane="free">
        <walk from="-478347392#1" to="715835444#4" />
    </person>
    <person id="pedestrian97" depart="97.00" departLane="free">
        <walk from="149518804#3" to="563630394#0" />
    </person>
    <person id="pedestrian98" depart="98.00" departLane="free">
        <walk from="24509268" to="-149518804#2" />
    </person>
    <person id="pedestrian99" depart="99.00" departLane="free">
        <walk from="E9.14" to="528567529" />
    </person>
    <person id="pedestrian100" depart="100.00" departLane="free">
        <walk from="957138676#0" to="715835444#5" />
    </person>
    <person id="pedestrian101" depart="101.00" departLane="free">
        <walk from="56015406#1" to="-29895520#0" />
    </person>
    <person id="pedestrian102" depart="102.00" departLane="free">
        <walk from="150041636#0" to="-378491236" />
    </person>
    <person id="pedestrian103" depart="103.00" departLane="free">
        <walk from="1185258342" to="-150032770#5" />
    </person>
    <person id="pedestrian104" depart="104.00" departLane="free">
        <walk from="1153038902#4" to="E1.13" />
    </person>
    <person id="pedestrian105" depart="105.00" departLane="free">
        <walk from="-526519487" to="4305021#0" />
    </person>
    <person id="pedestrian106" depart="106.00" departLane="free">
        <walk from="150032812#2" to="13755982" />
    </person>
    <person id="pedestrian107" depart="107.00" departLane="free">
        <walk from="884145210#0" to="E7.20" />
    </person>
    <person id="pedestrian108" depart="108.00" departLane="free">
        <walk from="255729754#0" to="365216936#0" />
    </person>
    <person id="pedestrian109" depart="109.00" departLane="free">
        <walk from="-285188051#1" to="-640167405" />
    </person>
    <person id="pedestrian110" depart="110.00" departLane="free">
        <walk from="957138676#0" to="256102744" />
    </person>
    <person id="pedestrian111" depart="111.00" departLane="free">
        <walk from="23508142#1" to="378543238" />
    </person>
    <person id="pedestrian112" depart="112.00" departLane="free">
        <walk from="-150032770#2" to="256102749" />
    </person>
    <person id="pedestrian113" depart="113.00" departLane="free">
        <walk from="150041716#2" to="56028463#1" />
    </person>
    <person id="pedestrian114" depart="114.00" departLane="free">
        <walk from="-285295366" to="886404164#0" />
    </person>
    <person id="pedestrian115" depart="115.00" departLane="free">
        <walk from="-150041636#2" to="-359458206" />
    </person>
    <person id="pedestrian116" depart="116.00" departLane="free">
        <walk from="256105105#2" to="319910933#0" />
    </person>
    <person id="pedestrian117" depart="117.00" departLane="free">
        <walk from="-4305021#0" to="-23508141#1" />
    </person>
    <person id="pedestrian118" depart="118.00" departLane="free">
        <walk from="693072006" to="-465884704" />
    </person>
    <person id="pedestrian119" depart="119.00" departLane="free">
        <walk from="256105105#2" to="28247397#0" />
    </person>
    <person id="pedestrian120" depart="120.00" departLane="free">
        <walk from="1290085526#0" to="256102748" />
    </person>
    <person id="pedestrian121" depart="121.00" departLane="free">
        <walk from="22911004" to="750168164" />
    </person>
    <person id="pedestrian122" depart="122.00" departLane="free">
        <walk from="-378479743#1" to="365216933" />
    </person>
    <person id="pedestrian123" depart="123.00" departLane="free">
        <walk from="-43206316" to="1185258338#0" />
    </person>
    <person id="pedestrian124" depart="124.00" departLane="free">
        <walk from="319910923#0" to="-689912267#0" />
    </person>
    <person id="pedestrian125" depart="125.00" departLane="free">
        <walk from="-715835444#1" to="395456768" />
    </person>
    <person id="pedestrian126" depart="126.00" departLane="free">
        <walk from="-150041624#1" to="150032863#0" />
    </person>
    <person id="pedestrian127" depart="127.00" departLane="free">
        <walk from="E9.14" to="E7.20" />
    </person>
    <person id="pedestrian128" depart="128.00" departLane="free">
        <walk from="-150041624#1" to="-378491236" />
    </person>
    <person id="pedestrian129" depart="129.00" departLane="free">
        <walk from="-526519487" to="749484712#1" />
    </person>
    <person id="pedestrian130" depart="130.00" departLane="free">
        <walk from="638694840#0" to="624481020#4" />
    </person>
    <person id="pedestrian131" depart="131.00" departLane="free">
        <walk from="-E1" to="-285295366" />
    </person>
    <person id="pedestrian132" depart="132.00" departLane="free">
        <walk from="52414187" to="359458208#1" />
    </person>
    <person id="pedestrian133" depart="133.00" departLane="free">
        <walk from="26730977#2" to="E10.25" />
    </person>
    <person id="pedestrian134" depart="134.00" departLane="free">
        <walk from="29895520#1" to="-115485620#0" />
    </person>
    <person id="pedestrian135" depart="135.00" departLane="free">
        <walk from="478347392#0" to="-689912267#0" />
    </person>
    <person id="pedestrian136" depart="136.00" departLane="free">
        <walk from="319910910#1" to="750168166#0" />
    </person>
    <person id="pedestrian137" depart="137.00" departLane="free">
        <walk from="-257510647#0" to="-23401995#3" />
    </person>
    <person id="pedestrian138" depart="138.00" departLane="free">
        <walk from="-23101679#1" to="253230759#0" />
    </person>
    <person id="pedestrian139" depart="139.00" departLane="free">
        <walk from="-56015406#0" to="256105105#9" />
    </person>
    <person id="pedestrian140" depart="140.00" departLane="free">
        <walk from="365216934" to="-378479743#1" />
    </person>
    <person id="pedestrian141" depart="141.00" departLane="free">
        <walk from="285156957" to="-50507110" />
    </person>
    <person id="pedestrian142" depart="142.00" departLane="free">
        <walk from="150041636#2" to="700236092#1" />
    </person>
    <person id="pedestrian143" depart="143.00" departLane="free">
        <walk from="55556572" to="-150041716#0" />
    </person>
    <person id="pedestrian144" depart="144.00" departLane="free">
        <walk from="13755982" to="-563630391" />
    </person>
    <person id="pedestrian145" depart="145.00" departLane="free">
        <walk from="-1153038902#2" to="4195610#0" />
    </person>
    <person id="pedestrian146" depart="146.00" departLane="free">
        <walk from="285188051#0" to="-494297578#1" />
    </person>
    <person id="pedestrian147" depart="147.00" departLane="free">
        <walk from="378479753" to="245221889" />
    </person>
    <person id="pedestrian148" depart="148.00" departLane="free">
        <walk from="13858859" to="-1160713521" />
    </person>
    <person id="pedestrian149" depart="149.00" departLane="free">
        <walk from="-150041624#3" to="638694840#1" />
    </person>
    <person id="pedestrian150" depart="150.00" departLane="free">
        <walk from="700236092#0" to="23510371" />
    </person>
    <person id="pedestrian151" depart="151.00" departLane="free">
        <walk from="52414187" to="256102748" />
    </person>
    <person id="pedestrian152" depart="152.00" departLane="free">
        <walk from="-28247401" to="-23599727#1" />
    </person>
    <person id="pedestrian153" depart="153.00" departLane="free">
        <walk from="-700440128" to="694836606" />
    </person>
    <person id="pedestrian154" depart="154.00" departLane="free">
        <walk from="439271818#0" to="563630393" />
    </person>
    <person id="pedestrian155" depart="155.00" departLane="free">
        <walk from="694836606" to="-378479743#5" />
    </person>
    <person id="pedestrian156" depart="156.00" departLane="free">
        <walk from="-478347392#0" to="-22911004" />
    </person>
    <person id="pedestrian157" depart="157.00" departLane="free">
        <walk from="4295817#0" to="640167405" />
    </person>
    <person id="pedestrian158" depart="158.00" departLane="free">
        <walk from="1244524929" to="28247397#0" />
    </person>
    <person id="pedestrian159" depart="159.00" departLane="free">
        <walk from="-285188051#1" to="749484708" />
    </person>
    <person id="pedestrian160" depart="160.00" departLane="free">
        <walk from="563896824" to="987109589#0" />
    </person>
    <person id="pedestrian161" depart="161.00" departLane="free">
        <walk from="465884703#2" to="638694840#0" />
    </person>
    <person id="pedestrian162" depart="162.00" departLane="free">
        <walk from="-1185258340#0" to="378479743#4" />
    </person>
    <person id="pedestrian163" depart="163.00" departLane="free">
        <walk from="-749484712#1" to="749484708" />
    </person>
    <person id="pedestrian164" depart="164.00" departLane="free">
        <walk from="459339931" to="563896824" />
    </person>
    <person id="pedestrian165" depart="165.00" departLane="free">
        <walk from="465884703#2" to="-53207954#1" />
    </person>
    <person id="pedestrian166" depart="166.00" departLane="free">
        <walk from="43206316" to="-23248109#0" />
    </person>
    <person id="pedestrian167" depart="167.00" departLane="free">
        <walk from="585579893" to="563630392#1" />
    </person>
    <person id="pedestrian168" depart="168.00" departLane="free">
        <walk from="-4144040#4" to="478347392#0" />
    </person>
    <person id="pedestrian169" depart="169.00" departLane="free">
        <walk from="150032863#1" to="-69990704" />
    </person>
    <person id="pedestrian170" depart="170.00" departLane="free">
        <walk from="439271818#0" to="-4195580#2" />
    </person>
    <person id="pedestrian171" depart="171.00" departLane="free">
        <walk from="-1185258339" to="-359458213" />
    </person>
    <person id="pedestrian172" depart="172.00" departLane="free">
        <walk from="-749484708" to="563896824" />
    </person>
    <person id="pedestrian173" depart="173.00" departLane="free">
        <walk from="886547966" to="-563630392#1" />
    </person>
    <person id="pedestrian174" depart="174.00" departLane="free">
        <walk from="285188051#2" to="1185258340#0" />
    </person>
    <person id="pedestrian175" depart="175.00" departLane="free">
        <walk from="999293416" to="23508141#0" />
    </person>
    <person id="pedestrian176" depart="176.00" departLane="free">
        <walk from="750168166#1" to="-23401995#3" />
    </person>
    <person id="pedestrian177" depart="177.00" departLane="free">
        <walk from="957138676#2" to="-35098345" />
    </person>
    <person id="pedestrian178" depart="178.00" departLane="free">
        <walk from="886404164#1" to="-526519487" />
    </person>
    <person id="pedestrian179" depart="179.00" departLane="free">
        <walk from="-23248109#0" to="149518793" />
    </person>
    <person id="pedestrian180" depart="180.00" departLane="free">
        <walk from="377601585" to="-715802321" />
    </person>
    <person id="pedestrian181" depart="181.00" departLane="free">
        <walk from="256105105#9" to="196656222#0" />
    </person>
    <person id="pedestrian182" depart="182.00" departLane="free">
        <walk from="1162647991" to="255797405#1" />
    </person>
    <person id="pedestrian183" depart="183.00" departLane="free">
        <walk from="-478347396#1" to="359458216" />
    </person>
    <person id="pedestrian184" depart="184.00" departLane="free">
        <walk from="-1153038902#0" to="715835444#5" />
    </person>
    <person id="pedestrian185" depart="185.00" departLane="free">
        <walk from="23508141#1" to="365216936#0" />
    </person>
    <person id="pedestrian186" depart="186.00" departLane="free">
        <walk from="378479753" to="319910923#0" />
    </person>
    <person id="pedestrian187" depart="187.00" departLane="free">
        <walk from="-987109589#1" to="-150041594#1" />
    </person>
    <person id="pedestrian188" depart="188.00" departLane="free">
        <walk from="319910912" to="-749484709" />
    </person>
    <person id="pedestrian189" depart="189.00" departLane="free">
        <walk from="-715802321" to="56015406#1" />
    </person>
    <person id="pedestrian190" depart="190.00" departLane="free">
        <walk from="365216936#0" to="-689912267#0" />
    </person>
    <person id="pedestrian191" depart="191.00" departLane="free">
        <walk from="-700440129" to="1287285289" />
    </person>
    <person id="pedestrian192" depart="192.00" departLane="free">
        <walk from="1185258343" to="-638694840#1" />
    </person>
    <person id="pedestrian193" depart="193.00" departLane="free">
        <walk from="-23599727#1" to="1290085526#0" />
    </person>
    <person id="pedestrian194" depart="194.00" departLane="free">
        <walk from="750168166#1" to="319910933#1" />
    </person>
    <person id="pedestrian195" depart="195.00" departLane="free">
        <walk from="700236092#0" to="26937083#1" />
    </person>
    <person id="pedestrian196" depart="196.00" departLane="free">
        <walk from="-694836604" to="23599727#1" />
    </person>
    <person id="pedestrian197" depart="197.00" departLane="free">
        <walk from="-1153020821" to="-624481020#0" />
    </person>
    <person id="pedestrian198" depart="198.00" departLane="free">
        <walk from="148061769" to="256102746#0" />
    </person>
    <person id="pedestrian199" depart="199.00" departLane="free">
        <walk from="29895520#2" to="150032863#4" />
    </person>
    <person id="pedestrian200" depart="200.00" departLane="free">
        <walk from="149518804#3" to="-378491236" />
    </person>
    <person id="pedestrian201" depart="201.00" departLane="free">
        <walk from="150041551#2" to="69990712" />
    </person>
    <person id="pedestrian202" depart="202.00" departLane="free">
        <walk from="439271818#0" to="-29895520#3" />
    </person>
    <person id="pedestrian203" depart="203.00" departLane="free">
        <walk from="-150041645#4" to="218649572" />
    </person>
    <person id="pedestrian204" depart="204.00" departLane="free">
        <walk from="283117346#1" to="-750168165" />
    </person>
    <person id="pedestrian205" depart="205.00" departLane="free">
        <walk from="478347392#1" to="395456768" />
    </person>
    <person id="pedestrian206" depart="206.00" departLane="free">
        <walk from="319910923#1" to="-4195580#0" />
    </person>
    <person id="pedestrian207" depart="207.00" departLane="free">
        <walk from="-365216934" to="-1185258340#0" />
    </person>
    <person id="pedestrian208" depart="208.00" departLane="free">
        <walk from="-465884704" to="150041565" />
    </person>
    <person id="pedestrian209" depart="209.00" departLane="free">
        <walk from="56028463#0" to="-150041624#1" />
    </person>
    <person id="pedestrian210" depart="210.00" departLane="free">
        <walk from="1287285290#3" to="28247401" />
    </person>
    <person id="pedestrian211" depart="211.00" departLane="free">
        <walk from="-359458216" to="35771743#1" />
    </person>
    <person id="pedestrian212" depart="212.00" departLane="free">
        <walk from="150041682" to="-459339931" />
    </person>
    <person id="pedestrian213" depart="213.00" departLane="free">
        <walk from="29895520#3" to="-1153038902#4" />
    </person>
    <person id="pedestrian214" depart="214.00" departLane="free">
        <walk from="395456768" to="4195610#0" />
    </person>
    <person id="pedestrian215" depart="215.00" departLane="free">
        <walk from="-23101679#1" to="13858853" />
    </person>
    <person id="pedestrian216" depart="216.00" departLane="free">
        <walk from="-327864903#1" to="884145210#0" />
    </person>
    <person id="pedestrian217" depart="217.00" departLane="free">
        <walk from="218848625#1" to="-149518804#2" />
    </person>
    <person id="pedestrian218" depart="218.00" departLane="free">
        <walk from="-478347392#0" to="56015406#1" />
    </person>
    <person id="pedestrian219" depart="219.00" departLane="free">
        <walk from="150032842" to="459339929" />
    </person>
    <person id="pedestrian220" depart="220.00" departLane="free">
        <walk from="319910916" to="E10.25" />
    </person>
    <person id="pedestrian221" depart="221.00" departLane="free">
        <walk from="256105105#3" to="847071794" />
    </person>
    <person id="pedestrian222" depart="222.00" departLane="free">
        <walk from="694832101" to="26730977#2" />
    </person>
    <person id="pedestrian223" depart="223.00" departLane="free">
        <walk from="365216936#0" to="150041716#3" />
    </person>
    <person id="pedestrian224" depart="224.00" departLane="free">
        <walk from="50507110" to="23599727#1" />
    </person>
    <person id="pedestrian225" depart="225.00" departLane="free">
        <walk from="694836605" to="378491236" />
    </person>
    <person id="pedestrian226" depart="226.00" departLane="free">
        <walk from="150041565" to="-494297577#0" />
    </person>
    <person id="pedestrian227" depart="227.00" departLane="free">
        <walk from="-47492539" to="285188051#0" />
    </person>
    <person id="pedestrian228" depart="228.00" departLane="free">