<?xml version="1.0" encoding="UTF-8"?>

<!-- generated on 2024-10-18 12:40:06.691134 by randomTrips.py UNKNOWN
<configuration>
    <net-file value="241018_A034.net.xml"/>
    <output-trip-file value="random_cars.rou.xml"/>
    <route-file value="random_cars.trips.xml"/>
    <vehicle-class value="passenger"/>
</configuration>
-->

<!-- generated on 2024-10-18 12:40:06 by Eclipse SUMO duarouter Version 1.20.0
<configuration xmlns:xsi="http://www.w3.org/2001/XMLSchema-instance" xsi:noNamespaceSchemaLocation="http://sumo.dlr.de/xsd/duarouterConfiguration.xsd">

    <input>
        <net-file value="241018_A034.net.xml"/>
        <route-files value="random_cars.rou.xml"/>
    </input>

    <output>
        <output-file value="random_cars.trips.xml"/>
        <alternatives-output value="NUL"/>
    </output>

    <time>
        <begin value="0"/>
        <end value="3600"/>
    </time>

    <report>
        <no-warnings value="true"/>
        <ignore-errors value="true"/>
        <no-step-log value="true"/>
    </report>

</configuration>
-->

<routes xmlns:xsi="http://www.w3.org/2001/XMLSchema-instance" xsi:noNamespaceSchemaLocation="http://sumo.dlr.de/xsd/routes_file.xsd">
    <vType id="passenger" vClass="passenger"/>
    <vehicle id="passenger0" type="passenger" depart="0.00">
        <route edges="4019053#2 -150032770#6 -150032770#5 -150032770#2 -150032770#1"/>
    </vehicle>
    <vehicle id="passenger1" type="passenger" depart="1.00">
        <route edges="-700440130#1 -700440130#0 700440130#0 700440130#1 700440128 700440129 1290085526#0 150041594#0 -150041551#3 -4295817#3 -4295817#1"/>
    </vehicle>
    <vehicle id="passenger2" type="passenger" depart="2.00">
        <route edges="484022097 4144040#3"/>
    </vehicle>
    <vehicle id="passenger3" type="passenger" depart="3.00">
        <route edges="700440134 715913363#2 1290085525#0 1290085525#1 700440148 700440131 506015829#1 E0 E2 378479740#1 -700440136 -56163443#3 -150041594#1 -1290085526#1 -700440129 -700440128 -700440130#1 -700440130#0 -196656222#2 -196656222#1"/>
    </vehicle>
    <vehicle id="passenger5" type="passenger" depart="5.00">
        <route edges="-53207957 150041593 196656222#0 196656222#1"/>
    </vehicle>
    <vehicle id="passenger8" type="passenger" depart="8.00">
        <route edges="-53207957 150041593 196656222#0 196656222#1 196656222#2 700440130#0 700440130#1 700440128 700440129 1290085526#0 150041594#0 56163443#1 700440137 700440134 715913363#2 1290085525#0 1290085525#1 700440148 700440131 506015829#1 E0 E2 378479740#1"/>
    </vehicle>
    <vehicle id="passenger9" type="passenger" depart="9.00">
        <route edges="59591195#2 73372559 -689912267#0 -624481020#4 -624481020#3 -624481020#1 -624481020#0 624481020#0 624481020#1 624481020#2 624481020#4 689912267#0 214812786 715913363#2 1290085525#0 1290085525#1 700440148 378479743#0 378479743#1 378479743#2 378479743#3 378479743#4 378479743#5 378479743#6 -1265069358#1 -1265069360#0"/>
    </vehicle>
    <vehicle id="passenger10" type="passenger" depart="10.00">
        <route edges="59591195#2 73372559 -689912267#0 -624481020#4 -624481020#3 -624481020#1 -624481020#0 624481020#0 624481020#1 624481020#2 624481020#4 689912267#0 214812786 116556686#1 -60263960 -4195580#2 -4195580#1 -4195580#0 4195580#0 4195580#1"/>
    </vehicle>
    <vehicle id="passenger12" type="passenger" depart="12.00">
        <route edges="715835444#5 23508224 -23508224 -715835444#5 -715835444#4 -715835444#3 -715835444#2"/>
    </vehicle>
    <vehicle id="passenger13" type="passenger" depart="13.00">
        <route edges="-23248109#0 23248109#0 23248109#1 -378479743#3 -378479743#2 75392301#0 75392301#1 23015831 -23015831"/>
    </vehicle>
    <vehicle id="passenger15" type="passenger" depart="15.00">
        <route edges="59591195#2 73372559 -689912267#0 -624481020#4 -624481020#3 -624481020#1 -624481020#0 624481020#0 624481020#1 624481020#2 624481020#4 689912267#0 214812786 378479740#1 -700440136 -56163443#3 -150041551#3 -4295817#3 -4295817#1 4295817#1 4295817#3"/>
    </vehicle>
    <vehicle id="passenger16" type="passenger" depart="16.00">
        <route edges="23508141#1 70205228#0 70205228#1 70205228#2 -70205228#2 -70205228#1 -70205228#0 -23508141#1 -715835444#1 60263960 116556688 43135644#0 715913363#2 1290085525#0 1290085525#1 700440148 378479743#0 378479743#1 75392301#0"/>
    </vehicle>
    <vehicle id="passenger17" type="passenger" depart="17.00">
        <route edges="1290085525#1 700440148 700440131 506015829#1 E0 E2 116556686#1 -60263960 715835444#1 23508141#1"/>
    </vehicle>
    <vehicle id="passenger18" type="passenger" depart="18.00">
        <route edges="624481020#2 624481020#4 689912267#0 214812786 715913363#2 1290085525#0 1290085525#1 700440148 378479743#0 378479743#1 378479743#2 378479743#3 378479743#4"/>
    </vehicle>
    <vehicle id="passenger19" type="passenger" depart="19.00">
        <route edges="700440128 700440129 1290085526#0 150041594#0 56163443#1 700440137 700440134 715913363#2 1290085525#0 1290085525#1 700440148 378479743#0 378479743#1 378479743#2 378479743#3 378479743#4 378479743#5 378479743#6 -1265069358#1 -1265069360#0 1265069359 254075881#1"/>
    </vehicle>
    <vehicle id="passenger20" type="passenger" depart="20.00">
        <route edges="4295817#0 4295817#1 4295817#3 -150041551#1 -150041551#0"/>
    </vehicle>
    <vehicle id="passenger21" type="passenger" depart="21.00">
        <route edges="-60263960 60263960 116556688 43135644#0 378479740#1 -700440136 -56163443#3 -150041594#1 -1290085526#1 -700440129 -700440128"/>
    </vehicle>
    <vehicle id="passenger22" type="passenger" depart="22.00">
        <route edges="-196656222#2 -196656222#1 -196656222#0 -53207957 150041593 196656222#0 196656222#1 196656222#2 700440130#0 700440130#1 700440128 700440129 1290085526#0 150041594#0 56163443#1 700440137 700440134 715913363#2 1290085525#0 1290085525#1 -4144040#4 -4144040#3 -484022097"/>
    </vehicle>
    <vehicle id="passenger24" type="passenger" depart="24.00">
        <route edges="395456769#1 492925919 254075881#1 449551311 44973978 506013711#1 4019053#2 -150032770#6 -150032770#5 -150032770#2 -150032770#1 -150032770#0 150032770#0 150032770#1 150032770#2 150032770#5 150032770#6 103958941#0"/>
    </vehicle>
    <vehicle id="passenger25" type="passenger" depart="25.00">
        <route edges="1265069359 1265069358#1 -378479743#6 -378479743#5 -378479743#4 -378479743#3 -378479743#2 -378479743#1 -378479743#0 700440131 506015829#1 E0 E2 116556686#1 -60263960 -4195580#2"/>
    </vehicle>
    <vehicle id="passenger26" type="passenger" depart="26.00">
        <route edges="-700440130#0 700440130#0 700440130#1 700440128 700440129 1290085526#0 150041594#0 56163443#1 700440137 700440134 116556686#1 -60263960 715835444#1"/>
    </vehicle>
    <vehicle id="passenger27" type="passenger" depart="27.00">
        <route edges="4144040#0 4144040#1 4144040#2 4144040#3 4144040#4 700440148 378479743#0 378479743#1 378479743#2 378479743#3"/>
    </vehicle>
    <vehicle id="passenger28" type="passenger" depart="28.00">
        <route edges="-4144040#3 4144040#3 4144040#4 700440148 700440131 506015829#1 E0 E2 378479740#1 -700440136 -56163443#3 -150041551#3 -4295817#3 -4295817#1 4295817#1 4295817#3"/>
    </vehicle>
    <vehicle id="passenger29" type="passenger" depart="29.00">
        <route edges="-4144040#2 -4144040#1 4144040#1 4144040#2 4144040#3 4144040#4 700440148 700440131 506015829#1 E0 E2 116556686#1"/>
    </vehicle>
    <vehicle id="passenger30" type="passenger" depart="30.00">
        <route edges="E0 E2 378479740#1 -700440136 -56163443#3 -150041594#1 -1290085526#1 -700440129 -700440128 -700440130#1 -700440130#0 -196656222#2 -196656222#1 -196656222#0 -53207957 150041579#0 150041579#2 150041578 150041580 149518769#1 38115188"/>
    </vehicle>
    <vehicle id="passenger32" type="passenger" depart="32.00">
        <route edges="689912267#0 214812786 715913363#2 1290085525#0 1290085525#1 700440148 700440131 506015829#1"/>
    </vehicle>
    <vehicle id="passenger33" type="passenger" depart="33.00">
        <route edges="-60263960 60263960 116556688 43135644#0 715913363#2 1290085525#0 1290085525#1 700440148 378479743#0 378479743#1 378479743#2 378479743#3 378479743#4 378479743#5 378479743#6 700236092#0 700236092#1 700236093 44973978 506013711#1 4019053#2 -150032770#6 -150032770#5 -150032770#2"/>
    </vehicle>
    <vehicle id="passenger34" type="passenger" depart="34.00">
        <route edges="-715835444#3 -715835444#2 -715835444#1 60263960 116556688 43135644#0 214812788#2 73372559 -689912267#0 -624481020#4 -624481020#3 -624481020#1"/>
    </vehicle>
    <vehicle id="passenger35" type="passenger" depart="35.00">
        <route edges="-4295817#3 -4295817#1 -23508224 -715835444#5 -715835444#4 -715835444#3 -715835444#2 715835444#2"/>
    </vehicle>
    <vehicle id="passenger36" type="passenger" depart="36.00">
        <route edges="700440130#0 700440130#1 700440128 700440129 1290085526#0 150041594#0 56163443#1 700440137 700440134 116556686#1 -60263960 715835444#1 23508141#1 70205228#0 70205228#1 70205228#2 -70205228#2 -70205228#1 -70205228#0"/>
    </vehicle>
    <vehicle id="passenger37" type="passenger" depart="37.00">
        <route edges="4144040#1 4144040#2 -4144040#2 -4144040#1 4195580#0 4195580#1 4195580#2 60263960 116556688 43135644#0 715913363#2 1290085525#0"/>
    </vehicle>
    <vehicle id="passenger38" type="passenger" depart="38.00">
        <route edges="700440148 700440131 506015829#1 E0 E2 378479740#1 -700440136 -56163443#3 -150041594#1 -1290085526#1 -700440129 -700440128 -700440130#1 -700440130#0 -196656222#2 -196656222#1 -196656222#0 -53207957 150041579#0 150041579#2 150041578"/>
    </vehicle>
    <vehicle id="passenger39" type="passenger" depart="39.00">
        <route edges="-700440129 700440129 1290085526#0 150041594#0 56163443#1 700440137 -700440136 -56163443#3"/>
    </vehicle>
    <vehicle id="passenger41" type="passenger" depart="41.00">
        <route edges="378479743#2 378479743#3 -23248109#1 23248109#1 -378479743#3 -378479743#2 -378479743#1 -378479743#0 700440131 506015829#1 E0 E2 378479740#1 -700440136 -56163443#3 56163443#1 700440137"/>
    </vehicle>
    <vehicle id="passenger43" type="passenger" depart="43.00">
        <route edges="E2 378479740#1 -700440136 -56163443#3 -150041594#1 -1290085526#1 -700440129 -700440128 -700440130#1 -700440130#0 -196656222#2 -196656222#1 -196656222#0 -53207957 150041593 196656222#0 196656222#1 196656222#2"/>
    </vehicle>
    <vehicle id="passenger44" type="passenger" depart="44.00">
        <route edges="-23248109#0 23248109#0 23248109#1 -378479743#3 -378479743#2 -378479743#1 -378479743#0 700440131 506015829#1 E0 E2 378479740#1 -700440136 -56163443#3 -150041551#3 -150041551#1 -150041551#0"/>
    </vehicle>
    <vehicle id="passenger45" type="passenger" depart="45.00">
        <route edges="-23508141#1 -715835444#1 60263960 116556688 43135644#0 715913363#2 1290085525#0 1290085525#1 700440148 378479743#0 378479743#1 378479743#2 378479743#3 378479743#4 378479743#5 378479743#6"/>
    </vehicle>
    <vehicle id="passenger46" type="passenger" depart="46.00">
        <route edges="56163443#1 700440137 700440134 715913363#2 1290085525#0 1290085525#1 700440148 378479743#0 378479743#1 378479743#2 378479743#3 378479743#4 378479743#5 378479743#6 700236092#0 700236092#1 700236093 44973978 506013711#1 4019053#2 -150032770#6 -150032770#5 -150032770#2 -150032770#1 -150032770#0 150032770#0 150032770#1"/>
    </vehicle>
    <vehicle id="passenger47" type="passenger" depart="47.00">
        <route edges="-182982119#1 56163443#1 700440137 700440134 116556686#1 -60263960 60263960 116556688"/>
    </vehicle>
    <vehicle id="passenger48" type="passenger" depart="48.00">
        <route edges="E2 378479740#1 700440134 715913363#2 1290085525#0 1290085525#1 700440148 378479743#0 378479743#1 75392301#0 75392301#1 23015831"/>
    </vehicle>
    <vehicle id="passenger49" type="passenger" depart="49.00">
        <route edges="73372559 -689912267#0 -624481020#4 -624481020#3 -624481020#1 -624481020#0 624481020#0 624481020#1 624481020#2 624481020#4 689912267#0 214812786 378479740#1 -700440136 -56163443#3 -150041594#1 -1290085526#1 -700440129 -700440128 -700440130#1 -700440130#0 700440130#0 700440130#1 700440128"/>
    </vehicle>
    <vehicle id="passenger51" type="passenger" depart="51.00">
        <route edges="4195580#1 4195580#2 60263960 116556688 43135644#0 715913363#2 1290085525#0 1290085525#1 700440148 378479743#0 378479743#1 378479743#2 378479743#3 -23248109#1 23248109#1"/>
    </vehicle>
    <vehicle id="passenger52" type="passenger" depart="52.00">
        <route edges="-700440130#0 -196656222#2 -196656222#1 -196656222#0 -53207957 150041579#0 150041579#2 150041578 150041580 149518769#1 38115188"/>
    </vehicle>
    <vehicle id="passenger53" type="passenger" depart="53.00">
        <route edges="-23508224 -715835444#5 -715835444#4 150041551#0 150041551#1 150041551#2 56163443#1 700440137 700440134 715913363#2 1290085525#0 1290085525#1 700440148 378479743#0 378479743#1 378479743#2 378479743#3 378479743#4 378479743#5 378479743#6 700236092#0 700236092#1 700236093 44973978 506013711#1 4019053#2 -150032770#6 -150032770#5 -150032770#2 -150032770#1 -150032770#0 150032770#0 150032770#1 150032770#2 150032770#5"/>
    </vehicle>
    <vehicle id="passenger54" type="passenger" depart="54.00">
        <route edges="150041579#0 150041579#2 150041578 150041580 149518769#1 38115188 150041593 196656222#0 196656222#1 196656222#2 700440130#0 700440130#1 700440128 700440129 1290085526#0 150041594#0 -150041551#3 -150041551#1 -150041551#0 715835444#4"/>
    </vehicle>
    <vehicle id="passenger55" type="passenger" depart="55.00">
        <route edges="700440130#0 700440130#1 700440128 700440129 1290085526#0 150041594#0 56163443#1 700440137 700440134 214812788#2 73372559 -689912267#0 -624481020#4 -624481020#3 -624481020#1"/>
    </vehicle>
    <vehicle id="passenger56" type="passenger" depart="56.00">
        <route edges="214812786 715913363#2 1290085525#0 1290085525#1 -4144040#4 -4144040#3 -4144040#2 -4144040#1"/>
    </vehicle>
    <vehicle id="passenger57" type="passenger" depart="57.00">
        <route edges="700440148 700440131 506015829#1 E0 E2 378479740#1 -700440136 -56163443#3 -150041594#1 -1290085526#1 -700440129 700440129"/>
    </vehicle>
    <vehicle id="passenger58" type="passenger" depart="58.00">
        <route edges="-70205228#2 -70205228#1 -70205228#0 -23508141#1 715835444#2 715835444#3 150041551#0 150041551#1 150041551#2 -150041594#1 -1290085526#1 -700440129 -700440128 -700440130#1 -700440130#0 -196656222#2 -196656222#1 -196656222#0 -53207957 150041579#0 150041579#2 150041578 150041580 149518769#1 38115188"/>
    </vehicle>
    <vehicle id="passenger59" type="passenger" depart="59.00">
        <route edges="378479743#6 -1265069358#1 -1265069360#0 1265069359 1265069358#1 -378479743#6 -378479743#5 -378479743#4"/>
    </vehicle>
    <vehicle id="passenger60" type="passenger" depart="60.00">
        <route edges="506015829#1 E0 E2 378479740#1 700440134 715913363#2 1290085525#0 1290085525#1 700440148 378479743#0 378479743#1 378479743#2 378479743#3 -23248109#1 23248109#1"/>
    </vehicle>
    <vehicle id="passenger61" type="passenger" depart="61.00">
        <route edges="53207959#1 53207959#3 150041593 196656222#0 196656222#1 196656222#2 700440130#0 700440130#1 700440128 700440129 1290085526#0 150041594#0 56163443#1 700440137 700440134 715913363#2 1290085525#0 1290085525#1 700440148 378479743#0 378479743#1 75392301#0 75392301#1 23015831"/>
    </vehicle>
    <vehicle id="passenger62" type="passenger" depart="62.00">
        <route edges="-1265069358#1 -1265069360#0 1265069359 1265069358#1 -378479743#6 -378479743#5 -378479743#4 -378479743#3 -378479743#2 -378479743#1 -378479743#0 700440131 506015829#1 E0 E2 116556686#1 -60263960 715835444#1 23508141#1 70205228#0 70205228#1 70205228#2 -70205228#2"/>
    </vehicle>
    <vehicle id="passenger64" type="passenger" depart="64.00">
        <route edges="700440130#1 700440128 700440129 1290085526#0 150041594#0 56163443#1 700440137 700440134 214812788#2 73372559 -689912267#0 -624481020#4 -624481020#3 -624481020#1 -624481020#0 624481020#0 624481020#1 624481020#2"/>
    </vehicle>
    <vehicle id="passenger65" type="passenger" depart="65.00">
        <route edges="-715835444#2 715835444#2 715835444#3 150041551#0 150041551#1 150041551#2 -150041551#3"/>
    </vehicle>
    <vehicle id="passenger66" type="passenger" depart="66.00">
        <route edges="700440130#1 700440128 700440129 1290085526#0 150041594#0 56163443#1 700440137 700440134 116556686#1 -60263960 715835444#1 715835444#2 715835444#3"/>
    </vehicle>
    <vehicle id="passenger67" type="passenger" depart="67.00">
        <route edges="-23015831 4195610#0 4195610#2 484022097 4144040#3 4144040#4 700440148 700440131 506015829#1 E0 E2 378479740#1 -700440136 -56163443#3 -150041594#1 -1290085526#1 -700440129 -700440128 -700440130#1 -700440130#0 -196656222#2 -196656222#1 -196656222#0 -53207957 150041593"/>
    </vehicle>
    <vehicle id="passenger69" type="passenger" depart="69.00">
        <route edges="506015829#1 E0 E2 378479740#1 -700440136 -56163443#3 -150041594#1 -1290085526#1 -700440129 4295817#0 -23508224"/>
    </vehicle>
    <vehicle id="passenger70" type="passenger" depart="70.00">
        <route edges="150041594#0 56163443#1 700440137 700440134 116556686#1 -60263960 715835444#1 23508141#1"/>
    </vehicle>
    <vehicle id="passenger71" type="passenger" depart="71.00">
        <route edges="-700440129 -700440128 -700440130#1 -700440130#0 700440130#0"/>
    </vehicle>
    <vehicle id="passenger72" type="passenger" depart="72.00">
        <route edges="150041551#0 150041551#1 150041551#2 56163443#1 700440137 700440134 116556686#1 -60263960 -4195580#2"/>
    </vehicle>
    <vehicle id="passenger74" type="passenger" depart="74.00">
        <route edges="-4295817#1 -4295817#0 700440129 1290085526#0 150041594#0 56163443#1 700440137 -700440136"/>
    </vehicle>
    <vehicle id="passenger76" type="passenger" depart="76.00">
        <route edges="150041551#2 56163443#1 700440137 700440134 214812788#2 73372559 -689912267#0 -624481020#4 -624481020#3 -624481020#1 -624481020#0 624481020#0 624481020#1 624481020#2 624481020#4 689912267#0 214812786"/>
    </vehicle>
    <vehicle id="passenger77" type="passenger" depart="77.00">
        <route edges="-378479743#0 700440131 506015829#1 E0 E2 378479740#1 -700440136 -56163443#3 -150041551#3 -4295817#3"/>
    </vehicle>
    <vehicle id="passenger79" type="passenger" depart="79.00">
        <route edges="-60263960 715835444#1 715835444#2 715835444#3 150041551#0 150041551#1 -4295817#3 -4295817#1"/>
    </vehicle>
    <vehicle id="passenger80" type="passenger" depart="80.00">
        <route edges="-196656222#0 -53207957 150041593 196656222#0 196656222#1 196656222#2 700440130#0 700440130#1 700440128 700440129 1290085526#0 150041594#0 56163443#1 700440137 700440134 715913363#2 1290085525#0 1290085525#1 700440148 378479743#0 378479743#1 378479743#2 378479743#3 378479743#4 378479743#5 378479743#6"/>
    </vehicle>
    <vehicle id="passenger83" type="passenger" depart="83.00">
        <route edges="-624481020#1 -624481020#0 624481020#0 624481020#1 624481020#2 624481020#4 689912267#0 214812786 116556686#1 -60263960 -4195580#2 -4195580#1 -4195580#0 4144040#1"/>
    </vehicle>
    <vehicle id="passenger84" type="passenger" depart="84.00">
        <route edges="-484022097 484022097 4144040#3 4144040#4 700440148 378479743#0 378479743#1 378479743#2 378479743#3 -23248109#1 23248109#1 -378479743#3 -378479743#2 -378479743#1 -378479743#0"/>
    </vehicle>
    <vehicle id="passenger87" type="passenger" depart="87.00">
        <route edges="59591195#2 73372559 -689912267#0 -624481020#4 -624481020#3 -624481020#1 -624481020#0 624481020#0 624481020#1 624481020#2 624481020#4 689912267#0 214812786 715913363#2 1290085525#0 1290085525#1 -4144040#4"/>
    </vehicle>
    <vehicle id="passenger88" type="passenger" depart="88.00">
        <route edges="-23248109#1 23248109#1 378479743#4 378479743#5 378479743#6 700236092#0 700236092#1 700236093 44973978 506013711#1 4019053#2 -150032770#6 -150032770#5 -150032770#2 -150032770#1 -150032770#0 150032770#0 150032770#1 150032770#2 150032770#5"/>
    </vehicle>
    <vehicle id="passenger89" type="passenger" depart="89.00">
        <route edges="150041551#0 150041551#1 150041551#2 -150041594#1 -1290085526#1 -700440129 -700440128 -700440130#1 -700440130#0 -196656222#2 -196656222#1 -196656222#0 -53207957 150041579#0"/>
    </vehicle>
    <vehicle id="passenger91" type="passenger" depart="91.00">
        <route edges="881694399 -881694399 -182982119#1 56163443#1 700440137 700440134 715913363#2 1290085525#0 1290085525#1 700440148 378479743#0 378479743#1 75392301#0 75392301#1 23015831 -23015831"/>
    </vehicle>
    <vehicle id="passenger93" type="passenger" depart="93.00">
        <route edges="700440128 700440129 1290085526#0 150041594#0 56163443#1 700440137 -700440136 -56163443#3"/>
    </vehicle>
    <vehicle id="passenger94" type="passenger" depart="94.00">
        <route edges="-4195580#2 -4195580#1 -4195580#0 4195580#0 4195580#1 4195580#2 715835444#1 715835444#2 715835444#3 150041551#0 150041551#1"/>
    </vehicle>
    <vehicle id="passenger96" type="passenger" depart="96.00">
        <route edges="-624481020#4 -624481020#3 -624481020#1 -624481020#0 624481020#0 624481020#1 624481020#2 624481020#4 689912267#0 214812786 116556686#1 -60263960 715835444#1 23508141#1 70205228#0 70205228#1"/>
    </vehicle>
    <vehicle id="passenger97" type="passenger" depart="97.00">
        <route edges="150041565 700440130#0 700440130#1 700440128"/>
    </vehicle>
    <vehicle id="passenger98" type="passenger" depart="98.00">
        <route edges="24509268 700440138 700440139 -378479743#6 -378479743#5 -378479743#4 -378479743#3 -378479743#2 -378479743#1 -378479743#0 700440131 506015829#1 E0 E2 378479740#1 -700440136 -56163443#3 -150041551#3 -150041551#1"/>
    </vehicle>
    <vehicle id="passenger99" type="passenger" depart="99.00">
        <route edges="E2 59591195#0 59591195#1 59591195#2 73372559 -689912267#0 -624481020#4 -624481020#3 -624481020#1 -624481020#0 624481020#0 624481020#1 624481020#2 624481020#4"/>
    </vehicle>
    <vehicle id="passenger100" type="passenger" depart="100.00">
        <route edges="73372559 -689912267#0 -624481020#4 -624481020#3 -624481020#1 -624481020#0 624481020#0 624481020#1 624481020#2 624481020#4 689912267#0 214812786 116556686#1 -60263960 715835444#1 23508141#1 70205228#0 70205228#1"/>
    </vehicle>
    <vehicle id="passenger102" type="passenger" depart="102.00">
        <route edges="196656222#0 196656222#1 196656222#2 700440130#0 700440130#1 700440128 4295817#0 -4295817#0"/>
    </vehicle>
    <vehicle id="passenger104" type="passenger" depart="104.00">
        <route edges="1290085525#1 700440148 700440131 506015829#1 E0 E2 378479740#1 -700440136 -56163443#3 182982119#0 881694399"/>
    </vehicle>
    <vehicle id="passenger106" type="passenger" depart="106.00">
        <route edges="150041579#0 150041579#2 150041578 150041580 149518769#1 38115188 150041593 196656222#0 196656222#1 196656222#2 700440130#0 700440130#1 700440128 700440129 1290085526#0 150041594#0 56163443#1 700440137 700440134 715913363#2 1290085525#0 1290085525#1 700440148 378479743#0 378479743#1 378479743#2 378479743#3 378479743#4 378479743#5 378479743#6 700236092#0 700236092#1 700236093 44973978 506013711#1 4019053#2 -150032770#6 -150032770#5 -150032770#2 -150032770#1 -150032770#0 150032770#0 150032770#1"/>
    </vehicle>
    <vehicle id="passenger107" type="passenger" depart="107.00">
        <route edges="715835444#5 23508224 -4295817#0 700440129 1290085526#0 150041594#0 56163443#1 700440137 700440134 715913363#2 1290085525#0 1290085525#1 700440148 700440131 506015829#1 E0 E2"/>
    </vehicle>
    <vehicle id="passenger109" type="passenger" depart="109.00">
        <route edges="-378479743#6 -378479743#5 -378479743#4 -378479743#3 -378479743#2 -378479743#1 -378479743#0 700440131 506015829#1 E0 E2 378479740#1 -700440136 -56163443#3 -150041594#1 -1290085526#1 -700440129 -700440128 -700440130#1 -700440130#0"/>
    </vehicle>
    <vehicle id="passenger110" type="passenger" depart="110.00">
        <route edges="73372559 -689912267#0 -624481020#4 -624481020#3 -624481020#1 -624481020#0 624481020#0 624481020#1 624481020#2 624481020#4 689912267#0 214812786 715913363#2 1290085525#0 1290085525#1 700440148 378479743#0 378479743#1 378479743#2 378479743#3 378479743#4 378479743#5 378479743#6 -1265069358#1 -1265069360#0 1265069359 254075881#1"/>
    </vehicle>
    <vehicle id="passenger112" type="passenger" depart="112.00">
        <route edges="-150041594#1 -1290085526#1 -700440129 700440129 1290085526#0 150041594#0 56163443#1 700440137 700440134 715913363#2 1290085525#0 1290085525#1 700440148 378479743#0 378479743#1 378479743#2 378479743#3 378479743#4 378479743#5 378479743#6 700236092#0 700236092#1 700236093 44973978 506013711#1 35574708#1"/>
    </vehicle>
    <vehicle id="passenger113" type="passenger" depart="113.00">
        <route edges="214812786 715913363#2 1290085525#0 1290085525#1 700440148 378479743#0 378479743#1 378479743#2 378479743#3 378479743#4 378479743#5 378479743#6 700236092#0 700236092#1"/>
    </vehicle>
    <vehicle id="passenger114" type="passenger" depart="114.00">
        <route edges="-4144040#1 4195580#0 4195580#1 4195580#2 715835444#1 715835444#2 715835444#3 715835444#4 715835444#5"/>
    </vehicle>
    <vehicle id="passenger115" type="passenger" depart="115.00">
        <route edges="-196656222#2 -196656222#1 -196656222#0 -53207957 150041593 196656222#0 196656222#1 196656222#2 700440130#0 700440130#1 700440128 700440129 1290085526#0 150041594#0 56163443#1 700440137 700440134 715913363#2 1290085525#0 1290085525#1 -4144040#4 -4144040#3"/>
    </vehicle>
    <vehicle id="passenger116" type="passenger" depart="116.00">
        <route edges="378479743#4 378479743#5 378479743#6 -1265069358#1 -1265069360#0 1265069359 1265069358#1 -378479743#6 -378479743#5 -378479743#4 -378479743#3 -378479743#2 75392301#0 75392301#1 4195610#0 4195610#2 484022097 -4144040#2 -4144040#1 4144040#1 4144040#2"/>
    </vehicle>
    <vehicle id="passenger117" type="passenger" depart="117.00">
        <route edges="-624481020#1 -624481020#0 624481020#0 624481020#1 624481020#2 624481020#4 689912267#0 214812786 116556686#1 -60263960 715835444#1 23508141#1 70205228#0 70205228#1 70205228#2 -70205228#2 -70205228#1 -70205228#0 -23508141#1"/>
    </vehicle>
    <vehicle id="passenger118" type="passenger" depart="118.00">
        <route edges="700440134 715913363#2 1290085525#0 1290085525#1 700440148 700440131 506015829#1 E0 E2 378479740#1 -700440136 -56163443#3"/>
    </vehicle>
    <vehicle id="passenger119" type="passenger" depart="119.00">
        <route edges="378479743#4"/>
    </vehicle>
    <vehicle id="passenger121" type="passenger" depart="121.00">
        <route edges="23248109#1 -378479743#3 -378479743#2 -378479743#1 -378479743#0 700440131 506015829#1 E0 E2 116556686#1 -60263960 715835444#1"/>
    </vehicle>
    <vehicle id="passenger122" type="passenger" depart="122.00">
        <route edges="-4295817#1 -4295817#0 4295817#0"/>
    </vehicle>
    <vehicle id="passenger123" type="passenger" depart="123.00">
        <route edges="-624481020#1 -624481020#0 624481020#0 624481020#1 624481020#2 624481020#4 689912267#0 214812786 715913363#2 1290085525#0"/>
    </vehicle>
    <vehicle id="passenger124" type="passenger" depart="124.00">
        <route edges="4144040#4 700440148 700440131 506015829#1 E0 E2 378479740#1 -700440136 -56163443#3 -150041594#1 -1290085526#1 -700440129 -700440128 -700440130#1 -700440130#0"/>
    </vehicle>
    <vehicle id="passenger125" type="passenger" depart="125.00">
        <route edges="-715835444#3 -715835444#2 -715835444#1 -4195580#2 -4195580#1 -4195580#0 4144040#1 4144040#2 -484022097 484022097"/>
    </vehicle>
    <vehicle id="passenger126" type="passenger" depart="126.00">
        <route edges="-196656222#1 -196656222#0 -53207957 150041579#0 150041579#2 150041578"/>
    </vehicle>
    <vehicle id="passenger127" type="passenger" depart="127.00">
        <route edges="E2"/>
    </vehicle>
    <vehicle id="passenger128" type="passenger" depart="128.00">
        <route edges="-196656222#1 -196656222#0 -53207957 150041593 196656222#0 196656222#1 196656222#2 700440130#0 700440130#1 700440128 4295817#0 -4295817#0"/>
    </vehicle>
    <vehicle id="passenger129" type="passenger" depart="129.00">
        <route edges="-700440129 700440129 1290085526#0 150041594#0 56163443#1 700440137 700440134 116556686#1 -60263960 715835444#1"/>
    </vehicle>
    <vehicle id="passenger130" type="passenger" depart="130.00">
        <route edges="700440130#1"/>
    </vehicle>
    <vehicle id="passenger131" type="passenger" depart="131.00">
        <route edges="1265069359 1265069358#1 -378479743#6 -378479743#5"/>
    </vehicle>
    <vehicle id="passenger132" type="passenger" depart="132.00">
        <route edges="624481020#4 689912267#0 214812786 116556686#1 -60263960 -4195580#2 -4195580#1 -4195580#0 4195580#0 4195580#1 4195580#2"/>
    </vehicle>
    <vehicle id="passenger133" type="passenger" depart="133.00">
        <route edges="378479753 23248109#1 -378479743#3 -378479743#2 -378479743#1 -378479743#0 700440131 506015829#1 E0 E2 378479740#1 -700440136 -56163443#3 182982119#0 881694399"/>
    </vehicle>
    <vehicle id="passenger134" type="passenger" depart="134.00">
        <route edges="4144040#1 4144040#2 4144040#3 4144040#4 700440148 378479743#0 378479743#1 378479743#2 378479743#3 378479743#4 378479743#5 378479743#6 -1265069358#1 -1265069360#0"/>
    </vehicle>
    <vehicle id="passenger135" type="passenger" depart="135.00">