<?xml version="1.0" encoding="UTF-8"?>

<!-- generated on 2024-10-18 12:27:06.566156 by randomTrips.py UNKNOWN
<configuration>
    <net-file value="241018_A034.net.xml"/>
    <output-trip-file value="random_bikes.rou.xml"/>
    <route-file value="random_bikes.trips.xml"/>
    <vehicle-class value="bicycle"/>
</configuration>
-->

<routes xmlns:xsi="http://www.w3.org/2001/XMLSchema-instance" xsi:noNamespaceSchemaLocation="http://sumo.dlr.de/xsd/routes_file.xsd">
    <vType id="bikebicycle" vClass="bicycle"/>
    <trip id="bike0" depart="0.00" from="4019053#2" to="-150032770#1" type="bicycle"/>
    <trip id="bike1" depart="1.00" from="-700440130#1" to="-4295817#1" type="bicycle"/>
    <trip id="bike2" depart="2.00" from="484022097" to="4144040#3" type="bicycle"/>
    <trip id="bike3" depart="3.00" from="700440134" to="-196656222#1" type="bicycle"/>
    <trip id="bike4" depart="4.00" from="150032770#6" to="-150032770#2" type="bicycle"/>
    <trip id="bike5" depart="5.00" from="-53207957" to="196656222#1" type="bicycle"/>
    <trip id="bike6" depart="6.00" from="-150032770#2" to="-4195580#0" type="bicycle"/>
    <trip id="bike7" depart="7.00" from="4144040#0" to="23508141#0" type="bicycle"/>
    <trip id="bike8" depart="8.00" from="-53207957" to="378479740#1" type="bicycle"/>
    <trip id="bike9" depart="9.00" from="59591195#2" to="-1265069360#0" type="bicycle"/>
    <trip id="bike10" depart="10.00" from="59591195#2" to="4195580#1" type="bicycle"/>
    <trip id="bike11" depart="11.00" from="103958941#2" to="-378479743#4" type="bicycle"/>
    <trip id="bike12" depart="12.00" from="715835444#5" to="-715835444#2" type="bicycle"/>
    <trip id="bike13" depart="13.00" from="-23248109#0" to="-23015831" type="bicycle"/>
    <trip id="bike14" depart="14.00" from="700236092#0" to="378479743#2" type="bicycle"/>
    <trip id="bike15" depart="15.00" from="59591195#2" to="4295817#3" type="bicycle"/>
    <trip id="bike16" depart="16.00" from="23508141#1" to="75392301#0" type="bicycle"/>
    <trip id="bike17" depart="17.00" from="1290085525#1" to="23508141#1" type="bicycle"/>
    <trip id="bike18" depart="18.00" from="624481020#2" to="378479743#4" type="bicycle"/>
    <trip id="bike19" depart="19.00" from="700440128" to="254075881#1" type="bicycle"/>
    <trip id="bike20" depart="20.00" from="4295817#0" to="-150041551#0" type="bicycle"/>
    <trip id="bike21" depart="21.00" from="-60263960" to="-700440128" type="bicycle"/>
    <trip id="bike22" depart="22.00" from="-196656222#2" to="-484022097" type="bicycle"/>
    <trip id="bike23" depart="23.00" from="-23508141#0" to="-624481020#4" type="bicycle"/>
    <trip id="bike24" depart="24.00" from="395456769#1" to="103958941#0" type="bicycle"/>
    <trip id="bike25" depart="25.00" from="1265069359" to="-4195580#2" type="bicycle"/>
    <trip id="bike26" depart="26.00" from="-700440130#0" to="715835444#1" type="bicycle"/>
    <trip id="bike27" depart="27.00" from="4144040#0" to="378479743#3" type="bicycle"/>
    <trip id="bike28" depart="28.00" from="-4144040#3" to="4295817#3" type="bicycle"/>
    <trip id="bike29" depart="29.00" from="-4144040#2" to="116556686#1" type="bicycle"/>
    <trip id="bike30" depart="30.00" from="E0" to="38115188" type="bicycle"/>
    <trip id="bike31" depart="31.00" from="254075881#1" to="4144040#4" type="bicycle"/>
    <trip id="bike32" depart="32.00" from="689912267#0" to="506015829#1" type="bicycle"/>
    <trip id="bike33" depart="33.00" from="-60263960" to="-150032770#2" type="bicycle"/>
    <trip id="bike34" depart="34.00" from="-715835444#3" to="-624481020#1" type="bicycle"/>
    <trip id="bike35" depart="35.00" from="-4295817#3" to="715835444#2" type="bicycle"/>
    <trip id="bike36" depart="36.00" from="700440130#0" to="-70205228#0" type="bicycle"/>
    <trip id="bike37" depart="37.00" from="4144040#1" to="1290085525#0" type="bicycle"/>
    <trip id="bike38" depart="38.00" from="700440148" to="150041578" type="bicycle"/>
    <trip id="bike39" depart="39.00" from="-700440129" to="-56163443#3" type="bicycle"/>
    <trip id="bike40" depart="40.00" from="35574708#1" to="-624481020#1" type="bicycle"/>
    <trip id="bike41" depart="41.00" from="378479743#2" to="700440137" type="bicycle"/>
    <trip id="bike42" depart="42.00" from="150032770#0" to="-4295817#1" type="bicycle"/>
    <trip id="bike43" depart="43.00" from="E2" to="196656222#2" type="bicycle"/>
    <trip id="bike44" depart="44.00" from="-23248109#0" to="-150041551#0" type="bicycle"/>
    <trip id="bike45" depart="45.00" from="-23508141#1" to="378479743#6" type="bicycle"/>
    <trip id="bike46" depart="46.00" from="56163443#1" to="150032770#1" type="bicycle"/>
    <trip id="bike47" depart="47.00" from="-182982119#1" to="116556688" type="bicycle"/>
    <trip id="bike48" depart="48.00" from="E2" to="23015831" type="bicycle"/>
    <trip id="bike49" depart="49.00" from="73372559" to="700440128" type="bicycle"/>
    <trip id="bike50" depart="50.00" from="-150032770#0" to="4295817#1" type="bicycle"/>
    <trip id="bike51" depart="51.00" from="4195580#1" to="23248109#1" type="bicycle"/>
    <trip id="bike52" depart="52.00" from="-700440130#0" to="38115188" type="bicycle"/>
    <trip id="bike53" depart="53.00" from="-23508224" to="150032770#5" type="bicycle"/>
    <trip id="bike54" depart="54.00" from="150041579#0" to="715835444#4" type="bicycle"/>
    <trip id="bike55" depart="55.00" from="700440130#0" to="-624481020#1" type="bicycle"/>
    <trip id="bike56" depart="56.00" from="214812786" to="-4144040#1" type="bicycle"/>
    <trip id="bike57" depart="57.00" from="700440148" to="700440129" type="bicycle"/>
    <trip id="bike58" depart="58.00" from="-70205228#2" to="38115188" type="bicycle"/>
    <trip id="bike59" depart="59.00" from="378479743#6" to="-378479743#4" type="bicycle"/>
    <trip id="bike60" depart="60.00" from="506015829#1" to="23248109#1" type="bicycle"/>
    <trip id="bike61" depart="61.00" from="53207959#1" to="23015831" type="bicycle"/>
    <trip id="bike62" depart="62.00" from="-1265069358#1" to="-70205228#2" type="bicycle"/>
    <trip id="bike63" depart="63.00" from="-150032770#1" to="70205228#2" type="bicycle"/>
    <trip id="bike64" depart="64.00" from="700440130#1" to="624481020#2" type="bicycle"/>
    <trip id="bike65" depart="65.00" from="-715835444#2" to="-150041551#3" type="bicycle"/>
    <trip id="bike66" depart="66.00" from="700440130#1" to="715835444#3" type="bicycle"/>
    <trip id="bike67" depart="67.00" from="-23015831" to="150041593" type="bicycle"/>
    <trip id="bike68" depart="68.00" from="-196656222#0" to="492925920#1" type="bicycle"/>
    <trip id="bike69" depart="69.00" from="506015829#1" to="-23508224" type="bicycle"/>
    <trip id="bike70" depart="70.00" from="150041594#0" to="23508141#1" type="bicycle"/>
    <trip id="bike71" depart="71.00" from="-700440129" to="700440130#0" type="bicycle"/>
    <trip id="bike72" depart="72.00" from="150041551#0" to="-4195580#2" type="bicycle"/>
    <trip id="bike73" depart="73.00" from="23508142#0" to="4295817#3" type="bicycle"/>
    <trip id="bike74" depart="74.00" from="-4295817#1" to="-700440136" type="bicycle"/>
    <trip id="bike75" depart="75.00" from="E2" to="395456769#0" type="bicycle"/>
    <trip id="bike76" depart="76.00" from="150041551#2" to="214812786" type="bicycle"/>
    <trip id="bike77" depart="77.00" from="-378479743#0" to="-4295817#3" type="bicycle"/>
    <trip id="bike78" depart="78.00" from="103958941#0" to="378479740#1" type="bicycle"/>
    <trip id="bike79" depart="79.00" from="-60263960" to="-4295817#1" type="bicycle"/>
    <trip id="bike80" depart="80.00" from="-196656222#0" to="378479743#6" type="bicycle"/>
    <trip id="bike81" depart="81.00" from="-60263960" to="700440139" type="bicycle"/>
    <trip id="bike82" depart="82.00" from="700236093" to="-150041594#1" type="bicycle"/>
    <trip id="bike83" depart="83.00" from="-624481020#1" to="4144040#1" type="bicycle"/>
    <trip id="bike84" depart="84.00" from="-484022097" to="-378479743#0" type="bicycle"/>
    <trip id="bike85" depart="85.00" from="715835444#1" to="24509268" type="bicycle"/>
    <trip id="bike86" depart="86.00" from="150041594#0" to="53207959#1" type="bicycle"/>
    <trip id="bike87" depart="87.00" from="59591195#2" to="-4144040#4" type="bicycle"/>
    <trip id="bike88" depart="88.00" from="-23248109#1" to="150032770#5" type="bicycle"/>
    <trip id="bike89" depart="89.00" from="150041551#0" to="150041579#0" type="bicycle"/>
    <trip id="bike90" depart="90.00" from="44973978" to="4144040#2" type="bicycle"/>
    <trip id="bike91" depart="91.00" from="881694399" to="-23015831" type="bicycle"/>
    <trip id="bike92" depart="92.00" from="150032770#1" to="-715835444#2" type="bicycle"/>
    <trip id="bike93" depart="93.00" from="700440128" to="-56163443#3" type="bicycle"/>
    <trip id="bike94" depart="94.00" from="-4195580#2" to="150041551#1" type="bicycle"/>
    <trip id="bike95" depart="95.00" from="150032770#6" to="-624481020#4" type="bicycle"/>
    <trip id="bike96" depart="96.00" from="-624481020#4" to="70205228#1" type="bicycle"/>
    <trip id="bike97" depart="97.00" from="150041565" to="700440128" type="bicycle"/>
    <trip id="bike98" depart="98.00" from="24509268" to="-150041551#1" type="bicycle"/>
    <trip id="bike99" depart="99.00" from="E2" to="624481020#4" type="bicycle"/>
    <trip id="bike100" depart="100.00" from="73372559" to="70205228#1" type="bicycle"/>
    <trip id="bike101" depart="101.00" from="700236092#0" to="-378479743#6" type="bicycle"/>
    <trip id="bike102" depart="102.00" from="196656222#0" to="-4295817#0" type="bicycle"/>
    <trip id="bike103" depart="103.00" from="150032770#1" to="-150041551#3" type="bicycle"/>
    <trip id="bike104" depart="104.00" from="1290085525#1" to="881694399" type="bicycle"/>
    <trip id="bike105" depart="105.00" from="-700440129" to="53207959#1" type="bicycle"/>
    <trip id="bike106" depart="106.00" from="150041579#0" to="150032770#1" type="bicycle"/>
    <trip id="bike107" depart="107.00" from="715835444#5" to="E2" type="bicycle"/>
    <trip id="bike108" depart="108.00" from="254075881#1" to="4295817#0" type="bicycle"/>
    <trip id="bike109" depart="109.00" from="-378479743#6" to="-700440130#0" type="bicycle"/>
    <trip id="bike110" depart="110.00" from="73372559" to="254075881#1" type="bicycle"/>
    <trip id="bike111" depart="111.00" from="23508142#0" to="44973978" type="bicycle"/>
    <trip id="bike112" depart="112.00" from="-150041594#1" to="35574708#1" type="bicycle"/>
    <trip id="bike113" depart="113.00" from="214812786" to="700236092#1" type="bicycle"/>
    <trip id="bike114" depart="114.00" from="-4144040#1" to="715835444#5" type="bicycle"/>
    <trip id="bike115" depart="115.00" from="-196656222#2" to="-4144040#3" type="bicycle"/>
    <trip id="bike116" depart="116.00" from="378479743#4" to="4144040#2" type="bicycle"/>
    <trip id="bike117" depart="117.00" from="-624481020#1" to="-23508141#1" type="bicycle"/>
    <trip id="bike118" depart="118.00" from="700440134" to="-56163443#3" type="bicycle"/>
    <trip id="bike119" depart="119.00" from="378479743#4" to="378479743#4" type="bicycle"/>
    <trip id="bike120" depart="120.00" from="150032770#6" to="35574708#1" type="bicycle"/>
    <trip id="bike121" depart="121.00" from="23248109#1" to="715835444#1" type="bicycle"/>
    <trip id="bike122" depart="122.00" from="-4295817#1" to="4295817#0" type="bicycle"/>
    <trip id="bike123" depart="123.00" from="-624481020#1" to="1290085525#0" type="bicycle"/>
    <trip id="bike124" depart="124.00" from="4144040#4" to="-700440130#0" type="bicycle"/>
    <trip id="bike125" depart="125.00" from="-715835444#3" to="484022097" type="bicycle"/>
    <trip id="bike126" depart="126.00" from="-196656222#1" to="150041578" type="bicycle"/>
    <trip id="bike127" depart="127.00" from="E2" to="E2" type="bicycle"/>
    <trip id="bike128" depart="128.00" from="-196656222#1" to="-4295817#0" type="bicycle"/>
    <trip id="bike129" depart="129.00" from="-700440129" to="715835444#1" type="bicycle"/>
    <trip id="bike130" depart="130.00" from="700440130#1" to="700440130#1" type="bicycle"/>
    <trip id="bike131" depart="131.00" from="1265069359" to="-378479743#5" type="bicycle"/>
    <trip id="bike132" depart="132.00" from="624481020#4" to="4195580#2" type="bicycle"/>
    <trip id="bike133" depart="133.00" from="378479753" to="881694399" type="bicycle"/>
    <trip id="bike134" depart="134.00" from="4144040#1" to="-1265069360#0" type="bicycle"/>
    <trip id="bike135" depart="135.00" from="624481020#0" to="-700440130#0" type="bicycle"/>
    <trip id="bike136" depart="136.00" from="4144040#3" to="715835444#2" type="bicycle"/>
    <trip id="bike137" depart="137.00" from="-378479743#3" to="-23508141#0" type="bicycle"/>
    <trip id="bike138" depart="138.00" from="-23508141#1" to="23508142#0" type="bicycle"/>
    <trip id="bike139" depart="139.00" from="-700440130#1" to="378479743#2" type="bicycle"/>
    <trip id="bike140" depart="140.00" from="43135644#0" to="-4195580#1" type="bicycle"/>
    <trip id="bike141" depart="141.00" from="395456769#1" to="-624481020#1" type="bicycle"/>
    <trip id="bike142" depart="142.00" from="196656222#0" to="700440139" type="bicycle"/>
    <trip id="bike143" depart="143.00" from="700236092#0" to="-196656222#2" type="bicycle"/>
    <trip id="bike144" depart="144.00" from="150041551#0" to="-624481020#4" type="bicycle"/>
    <trip id="bike145" depart="145.00" from="-1265069358#1" to="506015829#1" type="bicycle"/>
    <trip id="bike146" depart="146.00" from="395456769#1" to="-624481020#0" type="bicycle"/>
    <trip id="bike147" depart="147.00" from="492925919" to="23508141#1" type="bicycle"/>
    <trip id="bike148" depart="148.00" from="150041551#0" to="-1265069360#0" type="bicycle"/>
    <trip id="bike149" depart="149.00" from="-196656222#1" to="700440131" type="bicycle"/>
    <trip id="bike150" depart="150.00" from="700440138" to="23508141#0" type="bicycle"/>
    <trip id="bike151" depart="151.00" from="624481020#4" to="35574708#1" type="bicycle"/>
    <trip id="bike152" depart="152.00" from="-378479743#5" to="-23508224" type="bicycle"/>
    <trip id="bike153" depart="153.00" from="-715835444#2" to="700440137" type="bicycle"/>
    <trip id="bike154" depart="154.00" from="59591195#0" to="700440128" type="bicycle"/>
    <trip id="bike155" depart="155.00" from="700440137" to="-4195580#2" type="bicycle"/>
    <trip id="bike156" depart="156.00" from="-624481020#4" to="-23248109#0" type="bicycle"/>
    <trip id="bike157" depart="157.00" from="53207959#1" to="700440131" type="bicycle"/>
    <trip id="bike158" depart="158.00" from="150032770#2" to="378479743#5" type="bicycle"/>
    <trip id="bike159" depart="159.00" from="-378479743#6" to="70205228#2" type="bicycle"/>
    <trip id="bike160" depart="160.00" from="700440128" to="75392301#0" type="bicycle"/>
    <trip id="bike161" depart="161.00" from="59591195#2" to="700440130#1" type="bicycle"/>
    <trip id="bike162" depart="162.00" from="-150032770#2" to="43135644#0" type="bicycle"/>
    <trip id="bike163" depart="163.00" from="-881694399" to="70205228#2" type="bicycle"/>
    <trip id="bike164" depart="164.00" from="59591195#1" to="700440128" type="bicycle"/>
    <trip id="bike165" depart="165.00" from="59591195#2" to="-624481020#1" type="bicycle"/>
    <trip id="bike166" depart="166.00" from="53207959#3" to="-23248109#1" type="bicycle"/>
    <trip id="bike167" depart="167.00" from="700440129" to="700236093" type="bicycle"/>
    <trip id="bike168" depart="168.00" from="-56163443#3" to="60263960" type="bicycle"/>
    <trip id="bike169" depart="169.00" from="150041579#2" to="-700440130#1" type="bicycle"/>
    <trip id="bike170" depart="170.00" from="59591195#0" to="-4295817#3" type="bicycle"/>
    <trip id="bike171" depart="171.00" from="-150032770#2" to="-4144040#4" type="bicycle"/>
    <trip id="bike172" depart="172.00" from="-881694399" to="700440128" type="bicycle"/>
    <trip id="bike173" depart="173.00" from="73372559" to="-624481020#4" type="bicycle"/>
    <trip id="bike174" depart="174.00" from="4019053#2" to="1290085525#1" type="bicycle"/>
    <trip id="bike175" depart="175.00" from="75392301#1" to="23248109#0" type="bicycle"/>
    <trip id="bike176" depart="176.00" from="715835444#2" to="-23508141#0" type="bicycle"/>
    <trip id="bike177" depart="177.00" from="73372559" to="-4144040#1" type="bicycle"/>
    <trip id="bike178" depart="178.00" from="715913363#2" to="-624481020#1" type="bicycle"/>
    <trip id="bike179" depart="179.00" from="-23508141#1" to="150032770#5" type="bicycle"/>
    <trip id="bike180" depart="180.00" from="44973978" to="-70205228#0" type="bicycle"/>
    <trip id="bike181" depart="181.00" from="378479743#6" to="196656222#2" type="bicycle"/>
    <trip id="bike182" depart="182.00" from="1290085526#0" to="254075881#1" type="bicycle"/>
    <trip id="bike183" depart="183.00" from="-689912267#0" to="4195610#0" type="bicycle"/>
    <trip id="bike184" depart="184.00" from="-1265069358#1" to="70205228#1" type="bicycle"/>
    <trip id="bike185" depart="185.00" from="23508141#1" to="4295817#0" type="bicycle"/>
    <trip id="bike186" depart="186.00" from="492925919" to="4144040#2" type="bicycle"/>
    <trip id="bike187" depart="187.00" from="1265069358#1" to="-150041594#1" type="bicycle"/>
    <trip id="bike188" depart="188.00" from="4144040#3" to="-715835444#1" type="bicycle"/>
    <trip id="bike189" depart="189.00" from="-715835444#3" to="700236092#0" type="bicycle"/>
    <trip id="bike190" depart="190.00" from="43135644#0" to="-700440130#0" type="bicycle"/>
    <trip id="bike191" depart="191.00" from="-715835444#2" to="149518769#1" type="bicycle"/>
    <trip id="bike192" depart="192.00" from="150032770#1" to="-700440129" type="bicycle"/>
    <trip id="bike193" depart="193.00" from="-378479743#1" to="150032770#1" type="bicycle"/>
    <trip id="bike194" depart="194.00" from="715835444#2" to="4144040#3" type="bicycle"/>
    <trip id="bike195" depart="195.00" from="700440138" to="378479743#4" type="bicycle"/>
    <trip id="bike196" depart="196.00" from="-715835444#1" to="23508141#1" type="bicycle"/>
    <trip id="bike197" depart="197.00" from="-1265069358#1" to="-700440128" type="bicycle"/>
    <trip id="bike198" depart="198.00" from="150041551#1" to="254075881#1" type="bicycle"/>
    <trip id="bike199" depart="199.00" from="4144040#1" to="150041579#0" type="bicycle"/>
    <trip id="bike200" depart="200.00" from="150041565" to="-4295817#0" type="bicycle"/>
    <trip id="bike201" depart="201.00" from="150041594#0" to="700440138" type="bicycle"/>
    <trip id="bike202" depart="202.00" from="59591195#0" to="-4144040#0" type="bicycle"/>
    <trip id="bike203" depart="203.00" from="-23015831" to="214812786" type="bicycle"/>
    <trip id="bike204" depart="204.00" from="395456769#0" to="-715835444#1" type="bicycle"/>
    <trip id="bike205" depart="205.00" from="624481020#0" to="484022097" type="bicycle"/>
    <trip id="bike206" depart="206.00" from="4195580#0" to="-4295817#3" type="bicycle"/>
    <trip id="bike207" depart="207.00" from="-4295817#0" to="-150032770#1" type="bicycle"/>
    <trip id="bike208" depart="208.00" from="-624481020#4" to="150041580" type="bicycle"/>
    <trip id="bike209" depart="209.00" from="700236092#0" to="-182982119#1" type="bicycle"/>
    <trip id="bike210" depart="210.00" from="150032770#5" to="378479743#6" type="bicycle"/>
    <trip id="bike211" depart="211.00" from="-4195580#2" to="4195580#1" type="bicycle"/>
    <trip id="bike212" depart="212.00" from="196656222#1" to="-53207957" type="bicycle"/>
    <trip id="bike213" depart="213.00" from="4144040#2" to="-1265069358#1" type="bicycle"/>
    <trip id="bike214" depart="214.00" from="492925920#1" to="506013711#1" type="bicycle"/>
    <trip id="bike215" depart="215.00" from="-23508141#1" to="150032770#2" type="bicycle"/>
    <trip id="bike216" depart="216.00" from="-4144040#4" to="715835444#5" type="bicycle"/>
    <trip id="bike217" depart="217.00" from="23248109#0" to="-150041551#0" type="bicycle"/>
    <trip id="bike218" depart="218.00" from="-624481020#4" to="700236092#0" type="bicycle"/>
    <trip id="bike219" depart="219.00" from="150041579#2" to="59591195#0" type="bicycle"/>
    <trip id="bike220" depart="220.00" from="4144040#4" to="881694399" type="bicycle"/>
    <trip id="bike221" depart="221.00" from="378479743#4" to="715835444#4" type="bicycle"/>
    <trip id="bike222" depart="222.00" from="700440134" to="378479743#3" type="bicycle"/>
    <trip id="bike223" depart="223.00" from="43135644#0" to="196656222#1" type="bicycle"/>
    <trip id="bike224" depart="224.00" from="624481020#2" to="23508141#1" type="bicycle"/>
    <trip id="bike225" depart="225.00" from="700440137" to="44973978" type="bicycle"/>
    <trip id="bike226" depart="226.00" from="150041594#0" to="-624481020#0" type="bicycle"/>
    <trip id="bike227" depart="227.00" from="-624481020#4" to="38115188" type="bicycle"/>
    <trip id="bike228" depart="228.00" from="506015829#1" to="214812788#2" type="bicycle"/>
    <trip id="bike229" depart="229.00" from="395456768" to="-624481020#4" type="bicycle"/>
    <trip id="bike230" depart="230.00" from="-196656222#1" to="-700440128" type="bicycle"/>
    <trip id="bike231" depart="231.00" from="-700440130#0" to="-70205228#1" type="bicycle"/>
    <trip id="bike232" depart="232.00" from="23508142#0" to="-378479743#1" type="bicycle"/>
    <trip id="bike233" depart="233.00" from="-60263960" to="4195580#1" type="bicycle"/>
    <trip id="bike234" depart="234.00" from="4295817#1" to="-150041565" type="bicycle"/>
    <trip id="bike235" depart="235.00" from="150032770#2" to="23508141#0" type="bicycle"/>
    <trip id="bike236" depart="236.00" from="150032770#5" to="-4195580#2" type="bicycle"/>
    <trip id="bike237" depart="237.00" from="150032770#6" to="700440138" type="bicycle"/>
    <trip id="bike238" depart="238.00" from="378479743#2" to="4195580#1" type="bicycle"/>
    <trip id="bike239" depart="239.00" from="700236093" to="506013711#1" type="bicycle"/>
    <trip id="bike240" depart="240.00" from="1290085525#1" to="-1265069360#0" type="bicycle"/>
    <trip id="bike241" depart="241.00" from="116556688" to="484022097" type="bicycle"/>
    <trip id="bike242" depart="242.00" from="700236092#1" to="715835444#4" type="bicycle"/>
    <trip id="bike243" depart="243.00" from="150032770#6" to="44973978" type="bicycle"/>
    <trip id="bike244" depart="244.00" from="23508224" to="378479743#1" type="bicycle"/>
    <trip id="bike245" depart="245.00" from="-53207957" to="-4295817#1" type="bicycle"/>
    <trip id="bike246" depart="246.00" from="150041551#2" to="-150032770#2" type="bicycle"/>
    <trip id="bike247" depart="247.00" from="103958941#0" to="4144040#3" type="bicycle"/>
    <trip id="bike248" depart="248.00" from="150032770#1" to="-378479743#6" type="bicycle"/>
    <trip id="bike249" depart="249.00" from="150041593" to="-23508224" type="bicycle"/>
    <trip id="bike250" depart="250.00" from="395456768" to="-150032770#1" type="bicycle"/>
    <trip id="bike251" depart="251.00" from="149518769#1" to="23508224" type="bicycle"/>
    <trip id="bike252" depart="252.00" from="-150032770#2" to="395456768" type="bicycle"/>
    <trip id="bike253" depart="253.00" from="-378479743#3" to="150041578" type="bicycle"/>
    <trip id="bike254" depart="254.00" from="-150041551#3" to="116556686#1" type="bicycle"/>
    <trip id="bike255" depart="255.00" from="-484022097" to="-70205228#2" type="bicycle"/>
    <trip id="bike256" depart="256.00" from="506015829#1" to="116556686#1" type="bicycle"/>
    <trip id="bike257" depart="257.00" from="492925920#1" to="624481020#2" type="bicycle"/>
    <trip id="bike258" depart="258.00" from="-689912267#0" to="-196656222#0" type="bicycle"/>
    <trip id="bike259" depart="259.00" from="-150032770#1" to="23248109#1" type="bicycle"/>
    <trip id="bike260" depart="260.00" from="E2" to="-715835444#4" type="bicycle"/>
    <trip id="bike261" depart="261.00" from="4144040#1" to="53207959#0" type="bicycle"/>
    <trip id="bike262" depart="262.00" from="4144040#1" to="492925919" type="bicycle"/>
    <trip id="bike263" depart="263.00" from="715835444#3" to="-4195580#0" type="bicycle"/>
    <trip id="bike264" depart="264.00" from="-150032770#1" to="-378479743#4" type="bicycle"/>
    <trip id="bike265" depart="265.00" from="-378479743#1" to="4144040#1" type="bicycle"/>
    <trip id="bike266" depart="266.00" from="35574708#1" to="-4295817#1" type="bicycle"/>
    <trip id="bike267" depart="267.00" from="4195610#2" to="506013711#1" type="bicycle"/>
    <trip id="bike268" depart="268.00" from="-4144040#3" to="378479743#2" type="bicycle"/>
    <trip id="bike269" depart="269.00" from="492925920#0" to="-23508141#0" type="bicycle"/>
    <trip id="bike270" depart="270.00" from="624481020#0" to="715913363#2" type="bicycle"/>
    <trip id="bike271" depart="271.00" from="-23508141#1" to="-150032770#1" type="bicycle"/>
    <trip id="bike272" depart="272.00" from="-715835444#3" to="4144040#3" type="bicycle"/>
    <trip id="bike273" depart="273.00" from="715835444#5" to="1290085525#1" type="bicycle"/>
    <trip id="bike274" depart="274.00" from="4295817#3" to="-182982119#1" type="bicycle"/>
    <trip id="bike275" depart="275.00" from="4195610#0" to="378479743#6" type="bicycle"/>
    <trip id="bike276" depart="276.00" from="-23508141#0" to="506015829#1" type="bicycle"/>
    <trip id="bike277" depart="277.00" from="700236092#1" to="378479743#1" type="bicycle"/>
    <trip id="bike278" depart="278.00" from="-378479743#0" to="881694399" type="bicycle"/>
    <trip id="bike279" depart="279.00" from="53207959#1" to="-715835444#4" type="bicycle"/>
    <trip id="bike280" depart="280.00" from="150041551#1" to="103958941#2" type="bicycle"/>
    <trip id="bike281" depart="281.00" from="214812788#2" to="-715835444#3" type="bicycle"/>
    <trip id="bike282" depart="282.00" from="700236092#0" to="624481020#1" type="bicycle"/>
    <trip id="bike283" depart="283.00" from="-23508141#0" to="715835444#5" type="bicycle"/>
    <trip id="bike284" depart="284.00" from="395456769#1" to="624481020#2" type="bicycle"/>
    <trip id="bike285" depart="285.00" from="4295817#1" to="150032770#5" type="bicycle"/>
    <trip id="bike286" depart="286.00" from="484022097" to="715913363#2" type="bicycle"/>
    <trip id="bike287" depart="287.00" from="-700440130#0" to="59591195#1" type="bicycle"/>
    <trip id="bike288" depart="288.00" from="23508141#1" to="150041593" type="bicycle"/>
    <trip id="bike289" depart="289.00" from="150041551#2" to="4295817#3" type="bicycle"/>
    <trip id="bike290" depart="290.00" from="-700440130#0" to="700236092#1" type="bicycle"/>
    <trip id="bike291" depart="291.00" from="624481020#2" to="-196656222#1" type="bicycle"/>
    <trip id="bike292" depart="292.00" from="700440130#1" to="-53207957" type="bicycle"/>
    <trip id="bike293" depart="293.00" from="150041580" to="378479743#3" type="bicycle"/>
    <trip id="bike294" depart="294.00" from="1290085525#1" to="-150032770#2" type="bicycle"/>
    <trip id="bike295" depart="295.00" from="700236092#1" to="-4144040#2" type="bicycle"/>
    <trip id="bike296" depart="296.00" from="-484022097" to="56163443#1" type="bicycle"/>
    <trip id="bike297" depart="297.00" from="103958941#2" to="700440130#1" type="bicycle"/>
    <trip id="bike298" depart="298.00" from="4295817#0" to="-624481020#4" type="bicycle"/>
    <trip id="bike299" depart="299.00" from="-1290085526#1" to="715835444#3" type="bicycle"/>
    <trip id="bike300" depart="300.00" from="-23015831" to="4295817#0" type="bicycle"/>
    <trip id="bike301" depart="301.00" from="196656222#0" to="492925919" type="bicycle"/>
    <trip id="bike302" depart="302.00" from="4195610#0" to="395456768" type="bicycle"/>
    <trip id="bike303" depart="303.00" from="196656222#1" to="53207959#3" type="bicycle"/>
    <trip id="bike304" depart="304.00" from="-23248109#0" to="-4295817#1" type="bicycle"/>
    <trip id="bike305" depart="305.00" from="4195610#0" to="-700440130#1" type="bicycle"/>
    <trip id="bike306" depart="306.00" from="378479743#1" to="150041579#2" type="bicycle"/>
    <trip id="bike307" depart="307.00" from="23508141#0" to="150032770#2" type="bicycle"/>
    <trip id="bike308" depart="308.00" from="492925920#0" to="-715835444#1" type="bicycle"/>
    <trip id="bike309" depart="309.00" from="4295817#0" to="-624481020#3" type="bicycle"/>
    <trip id="bike310" depart="310.00" from="-689912267#0" to="-23508141#1" type="bicycle"/>
    <trip id="bike311" depart="311.00" from="-4195580#2" to="-23508141#1" type="bicycle"/>
    <trip id="bike312" depart="312.00" from="23508141#1" to="492925920#1" type="bicycle"/>
    <trip id="bike313" depart="313.00" from="-4195580#1" to="-4295817#0" type="bicycle"/>
    <trip id="bike314" depart="314.00" from="196656222#0" to="4295817#1" type="bicycle"/>
    <trip id="bike315" depart="315.00" from="75392301#0" to="214812788#2" type="bicycle"/>
    <trip id="bike316" depart="316.00" from="-700440136" to="-23015831" type="bicycle"/>
    <trip id="bike317" depart="317.00" from="-4195580#2" to="-4295817#3" type="bicycle"/>
    <trip id="bike318" depart="318.00" from="-4195580#0" to="-1290085526#1" type="bicycle"/>
    <trip id="bike319" depart="319.00" from="23508141#1" to="-624481020#4" type="bicycle"/>
    <trip id="bike320" depart="320.00" from="75392301#0" to="23508142#0" type="bicycle"/>
    <trip id="bike321" depart="321.00" from="4195610#2" to="-23508224" type="bicycle"/>
    <trip id="bike322" depart="322.00" from="700440129" to="150041594#0" type="bicycle"/>
    <trip id="bike323" depart="323.00" from="700440130#0" to="24509268" type="bicycle"/>
    <trip id="bike324" depart="324.00" from="150041593" to="150032770#6" type="bicycle"/>
    <trip id="bike325" depart="325.00" from="-4195580#1" to="-150041551#1" type="bicycle"/>
    <trip id="bike326" depart="326.00" from="715835444#2" to="150041580" type="bicycle"/>