<?xml version="1.0" encoding="UTF-8"?>

<!-- generated on 2024-10-09 11:37:09 by Eclipse SUMO duarouter Version 1.20.0
<configuration xmlns:xsi="http://www.w3.org/2001/XMLSchema-instance" xsi:noNamespaceSchemaLocation="http://sumo.dlr.de/xsd/duarouterConfiguration.xsd">

    <input>
        <net-file value="fehler03.net.xml"/>
        <route-files value="osm.pedestrian.rou.xml"/>
    </input>

    <output>
        <output-file value="updated_routes.rou.xml"/>
    </output>

</configuration>
-->

<routes xmlns:xsi="http://www.w3.org/2001/XMLSchema-instance" xsi:noNamespaceSchemaLocation="http://sumo.dlr.de/xsd/routes_file.xsd"/>
