<?xml version="1.0" encoding="UTF-8"?>

<!-- generated on 2024-10-29 11:48:14.391947 by randomTrips.py UNKNOWN
<configuration>
    <net-file value="/opt/homebrew/opt/sumo/share/sumo/tools/2024-10-08-17-29-51/241029/241029_A141.net.xml"/>
    <route-file value="241029_random_route_pedestrian.rou.xml"/>
    <pedestrians value="True"/>
    <prefix value="pedestrian"/>
    <verbose value="True"/>
    <insertion-density value="70.0"/>
    <random-depart value="True"/>
</configuration>
-->

<!-- generated on 2024-10-29 11:48:14 by Eclipse SUMO duarouter Version 1.20.0
<configuration xmlns:xsi="http://www.w3.org/2001/XMLSchema-instance" xsi:noNamespaceSchemaLocation="http://sumo.dlr.de/xsd/duarouterConfiguration.xsd">

    <input>
        <net-file value="/opt/homebrew/opt/sumo/share/sumo/tools/2024-10-08-17-29-51/241029/241029_A141.net.xml"/>
        <route-files value="trips.trips.xml"/>
    </input>

    <output>
        <output-file value="241029_random_route_pedestrian.rou.xml"/>
        <alternatives-output value="NUL"/>
    </output>

    <time>
        <begin value="0.0"/>
        <end value="3600.0"/>
    </time>

    <report>
        <verbose value="true"/>
        <ignore-errors value="true"/>
        <no-step-log value="true"/>
    </report>

</configuration>
-->

<routes xmlns:xsi="http://www.w3.org/2001/XMLSchema-instance" xsi:noNamespaceSchemaLocation="http://sumo.dlr.de/xsd/routes_file.xsd">
    <person id="pedestrian0" depart="1.14">
        <walk edges="624481020#1 -334960656 334960660 -23599727#1 -23599727#0 253230759#1 -1244524929 465884703#2 255729754#1 255729754#0 150041716#4 150041716#3 -150041716#2 150041716#1 150041594#0 -150041624#0 -150041624#1 150041624#2 150041624#3"/>
    </person>
    <person id="pedestrian1" depart="2.13">
        <walk edges="-150041682 -23248109#1 378479743#3 378479743#2 378479743#1 378479743#0 700440148 255729754#2 255729754#1 255729754#0 150041716#4 150041716#3 -29895519#1 -29895519#2 29895520#0 -1185258339 1185258336#2"/>
    </person>
    <person id="pedestrian2" depart="6.13">
        <walk edges="150032770#5 -150032770#6 255729814#1 255729814#0 -984768176#1 -150032873 700236092#1 700236092#0 378479743#6 378479743#5 378479743#4 378479743#3 378479743#2 378479743#1 378479743#0 700440148 255729754#2 255729754#1 255729754#0 150041716#4 150041716#3 -150041716#2 150041716#1 150041594#0 -150041624#0 -150041624#1 150041624#2 -150041624#3 -43206316"/>
    </person>
    <person id="pedestrian3" depart="10.45">
        <walk edges="256102744 -257510647#0 257510647#1 E1.13 700440138 700440139 -378479743#6 -378479743#5 -378479743#4 378479743#3 378479743#2 378479743#1 378479743#0 700440148 255729754#2 255729754#1 255729754#0 150041716#4 150041716#3 -150041716#2 150041716#1 150041594#0 1290085526#0 700440129 700440128 700440130#1 700440130#0 196656222#2 -149518798"/>
    </person>
    <person id="pedestrian6" depart="21.54">
        <walk edges="-585579893 -4144040#4 255729754#2 255729754#1 255729754#0 150041716#4 150041716#3 -150041716#2 150041716#1 150041594#0 -150041624#0 -526519487 -115485620#0"/>
    </person>
    <person id="pedestrian7" depart="29.84">
        <walk edges="-22911004 150041682 -23248109#1 -378479743#4 365216933 149518793 149518802#0 150032863#1 -539841923#0 -1287285290#3 -24507771"/>
    </person>
    <person id="pedestrian8" depart="31.14">
        <walk edges="-526519487 -150041624#0 150041594#0 150041716#1 -150041716#2 150041716#3 150041716#4 255729754#0 255729754#1 255729754#2 700440148 378479743#0 378479743#1 378479743#2 378479743#3 -23248109#1 -23248109#0 -23248118 689756683 -987109589#1 -987109589#0"/>
    </person>
    <person id="pedestrian9" depart="33.83">
        <walk edges="1185258340#0 -29895520#1 29895520#0 -29895519#2 -29895519#1 150041716#3 150041716#4 -148061769"/>
    </person>
    <person id="pedestrian10" depart="41.60">
        <walk edges="-149518804#0 -984768176#1 -150032873 700236092#1 700236092#0 378479743#6 378479743#5 378479743#4 378479743#3 378479743#2 -378479743#1 -378479743#0 253230759#0 23599727#0"/>
    </person>
    <person id="pedestrian11" depart="50.06">
        <walk edges="-984768175 -150032873 700236092#1 700236092#0 378479743#6 378479743#5 378479743#4 378479743#3 378479743#2 -378479743#1 -378479743#0 253230759#0 -23599727#0 -23599727#1 334960660 -334960656 -624481020#1"/>
    </person>
    <person id="pedestrian12" depart="56.98">
        <walk edges="115485620#0 -526519487 -150041624#0 150041594#0 150041716#1 -150041716#2 150041716#3 150041716#4 255729754#0 255729754#1 255729754#2 700440148 378479743#0 378479743#1 378479743#2 378479743#3 378479743#4 378479743#5 378479743#6 700236092#0 700236092#1 -150032873 -984768176#1 -149518804#0 -149518804#2 149518804#3"/>
    </person>
    <person id="pedestrian14" depart="60.06">
        <walk edges="26937083#0 257510661#2 439271818#2 439271818#0 439271817#2 700236092#1 700236092#0 378479743#6 -378479743#6 700440139 700440138 E1.13 257510647#1 56028463#1 256105105#7"/>
    </person>
    <person id="pedestrian15" depart="60.30">
        <walk edges="-23508224 4295817#1 4295817#3 150041551#2 -150041716#1"/>
    </person>
    <person id="pedestrian16" depart="70.84">
        <walk edges="-E1 439271817#2 700236092#1 700236092#0 378479743#6 -378479743#5 -378479743#4 -23248109#1 -23248109#0 -23248118 689756683 987109589#1"/>
    </person>
    <person id="pedestrian17" depart="76.06">
        <walk edges="23508224 715835444#5 715835444#4 715835444#3 715835444#2 715835444#1 148061769 255729754#0 255729754#1 255729754#2 700440148 378479743#0 378479743#1 378479743#2 378479743#3 -23248109#1 -23248109#0 -23248118 689756683 -987109589#1 -987109589#0"/>
    </person>
    <person id="pedestrian18" depart="77.68">
        <walk edges="-28247397#0 -4209642 253230759#1 253230759#0 -378479743#0 -378479743#1 -378479743#2 -378479743#3 -23248109#1 -23248109#0 -23248118 689756683 -638694840#1 638694840#0 4213561#1 4213561#0 256105105#3"/>
    </person>
    <person id="pedestrian19" depart="79.38">
        <walk edges="1185258339 -29895520#1 -29895520#2 -29895520#3 -23101679#0 150041551#1 -4295817#3 -4295817#1 -4295817#0 881694397 150041624#2 -150041624#3 43206316 -150041689 -13755982"/>
    </person>
    <person id="pedestrian21" depart="83.13">
        <walk edges="439271818#0 439271817#2 700236092#1 700236092#0 378479743#6 378479743#5 378479743#4 378479743#3 378479743#2 378479743#1 378479743#0 700440148 255729754#2 255729754#1 255729754#0 150041716#4 150041716#3 -150041716#2 150041716#1 182982119#0"/>
    </person>
    <person id="pedestrian22" depart="84.51">
        <walk edges="-28247399 -28247397#1 -28247401 -624481020#4 689912267#0"/>
    </person>
    <person id="pedestrian23" depart="86.83">
        <walk edges="-257510647#0 257510647#1 E1.13 700440138 700440139 -378479743#6 -378479743#5 -378479743#4 378479743#3 378479743#2 378479743#1 378479743#0 700440148 255729754#2 255729754#1 255729754#0 148061769 715835444#1 715835444#2 715835444#3 715835444#4"/>
    </person>
    <person id="pedestrian24" depart="87.54">
        <walk edges="-715835444#1 -715835444#2 1153038902#4 -1185258336#0 1185258336#2"/>
    </person>
    <person id="pedestrian25" depart="101.76">
        <walk edges="257510648 257510647#1 E1.13 700440138 700440139 -378479743#6 528567529 150032842 149518802#1 149518802#0 150032863#1 539841923#0"/>
    </person>
    <person id="pedestrian26" depart="102.67">
        <walk edges="256102750#0 256102750#1 256102749 4213557 4213561#0 4213561#1 638694840#0 -638694840#1 689756683 -23248118 -23248109#0 -23248109#1 378479743#3 378479743#2 378479743#1 378479743#0 700440148 255729754#2 255729754#1 255729754#0 150041716#4 150041716#3 -150041716#2 150041716#1 150041594#0 -150041624#0 -150041624#1 150041624#2 -150041624#3 43206316 150041689"/>
    </person>
    <person id="pedestrian27" depart="105.61">
        <walk edges="150041699#1 -700440130#0 -700440130#1 -700440128 700440129 1290085526#0 150041594#0"/>
    </person>
    <person id="pedestrian28" depart="105.76">
        <walk edges="23599727#1 -23599727#0 253230759#0 -378479743#0 -378479743#1 378479743#2 378479743#3 378479743#4 365216933 149518793 149518802#0 150032863#2 150032863#3 150032863#4"/>
    </person>
    <person id="pedestrian30" depart="115.30">
        <walk edges="-23101679#1 23101679#1 -29895520#3 -29895520#2 -29895520#1 29895520#0 -29895519#2 -29895519#1 150041716#3 150041716#4 255729754#0 255729754#1 255729754#2 700440148 378479743#0 378479743#1 378479743#2 378479743#3 378479743#4 378479743#5 378479743#6 700236092#0 700236092#1 -150032873 1287285290#0"/>
    </person>
    <person id="pedestrian31" depart="117.14">
        <walk edges="-69990712 43206316 -150041624#3 150041624#2 881694397 -4295817#0 -4295817#1 -4295817#3 150041551#1 -23101679#0 -29895520#3 -1153038902#0 1153038902#2 1153038902#4 715835444#2 715835444#1 -715910744#1 694832101 694836606 694836603"/>
    </person>
    <person id="pedestrian32" depart="125.07">
        <walk edges="572523427 150032770#5 -150032770#6 255729814#1 255729814#0 -984768176#1 -150032873 700236092#1 700236092#0 378479743#6 378479743#5 378479743#4 378479743#3 378479743#2 -378479743#1 -378479743#0 253230759#0 253230759#1 -4209642 28247397#0"/>
    </person>
    <person id="pedestrian33" depart="127.07">
        <walk edges="256102750#2 366601856 366601855 4213561#1 638694840#0 -638694840#1 689756683 -23248118 -23248109#0 -23248109#1 378479743#3 378479743#2 378479743#1 378479743#0 700440148 255729754#2 255729754#1 255729754#0 150041716#4 150041716#3 -150041716#2 150041716#1 150041594#0 -150041624#0 -526519487"/>
    </person>
    <person id="pedestrian34" depart="127.53">
        <walk edges="286497563 700440130#1 700440128 700440129 1290085526#0 150041594#0 150041716#1 -150041716#2 -29895519#1 886547965#0"/>
    </person>
    <person id="pedestrian35" depart="127.92">
        <walk edges="255729810 715910744#0 -715910744#1 -4195580#2"/>
    </person>
    <person id="pedestrian36" depart="130.31">
        <walk edges="-149518804#0 150032812#1 255729814#1 -150032770#6 -150032770#5 -150032770#2 -150032770#1 -150032770#0 -327864903#0 -327864903#1 -218848625#1 -1287285290#3 -24507771 13858854 -47492539 -13858853 4195610#2 484022097 -4144040#2 -4144040#1 4195580#0 4195580#1 4195580#2 715835444#1 715835444#2 715835444#3 150041551#0"/>
    </person>
    <person id="pedestrian37" depart="133.53">
        <walk edges="196656222#0 196656222#1 196656222#2 700440130#0 700440130#1 700440128 700440129 1290085526#0 150041594#0 150041716#1 -150041716#2 150041716#3 150041716#4 255729754#0 255729754#1 255729754#2 700440148 378479743#0 378479743#1 378479743#2 365216934"/>
    </person>
    <person id="pedestrian38" depart="147.21">
        <walk edges="4195580#2 715835444#1 715835444#2 1153038902#4 1153038902#2 1153038902#0"/>
    </person>
    <person id="pedestrian40" depart="151.61">
        <walk edges="255729754#0 255729754#1 255729754#2 4144040#4 4144040#3 484022097 4195610#2 -13858853 -47492539 13858854 -24507771 -1287285290#3 -218848625#1 -327864903#1 327864903#0"/>
    </person>
    <person id="pedestrian41" depart="154.21">
        <walk edges="-35771741 148061776#1 -28230108 -150041636#0 -378491236 255729754#0 255729754#1 255729754#2 700440148 378479743#0 378479743#1 378479743#2 378479743#3 378479743#4 365216933 149518793"/>
    </person>
    <person id="pedestrian42" depart="154.54">
        <walk edges="1287285290#2 1287285289 150032863#2 149518802#0 149518793 365216933 378479743#4 378479743#3 378479743#2 -378479743#1 -378479743#0 253230759#0 253230759#1 1244524930"/>
    </person>
    <person id="pedestrian43" depart="156.30">
        <walk edges="-378479743#2 -378479743#1 -378479743#0 253230759#0 253230759#1 1244524930 255729797#1 E4 -378491236 -150041636#0 -150041636#1 150041636#2"/>
    </person>
    <person id="pedestrian44" depart="156.92">
        <walk edges="256105105#8 -559675981 -257510647#0 257510647#1 E1.13 700440138 700440139 -378479743#6 528567529 150032842 149518802#1 149518802#0 150032863#2"/>
    </person>
    <person id="pedestrian45" depart="162.44">
        <walk edges="56015406#0 -56015406#1 56028463#1 257510647#1 E1.13 700440138 700440139 -378479743#6 378479743#6 700236092#0 365217759 365217758"/>
    </person>
    <person id="pedestrian46" depart="163.14">
        <walk edges="327864908 327864907 218848626#1 -327864903#1 -218848625#1 -1287285290#3 -24507771 13858854 -47492539 -13858853 4195610#2 484022097 4144040#3 4144040#4 255729754#2 255729754#1 255729754#0 150041716#4"/>
    </person>
    <person id="pedestrian49" depart="164.67">
        <walk edges="806364424 -150032770#1 150032770#2 150032770#5 150032770#6"/>
    </person>
    <person id="pedestrian50" depart="168.97">
        <walk edges="218848626#1 -327864903#0 150032770#0 150032770#1 150032770#2 150032770#5 150032770#6 797259708#1 23401995#1"/>
    </person>
    <person id="pedestrian51" depart="171.30">
        <walk edges="319910910#1 319910910#0 150032863#3 1287285289 1287285290#2 -1287285290#3 563896824"/>
    </person>
    <person id="pedestrian52" depart="173.29">
        <walk edges="319910916 52414187 -23401995#2 -23401995#1 -149518804#3 -149518804#2 -149518804#0 -984768176#1 -150032873 439271817#2"/>
    </person>
    <person id="pedestrian53" depart="173.97">
        <walk edges="-526519487 -150041624#0 150041594#0 150041551#2"/>
    </person>
    <person id="pedestrian55" depart="178.37">
        <walk edges="-640167405 -4195580#0 -4144040#1 -4144040#2 -4144040#3 -4144040#4 255729754#2 255729754#1 749484712#1"/>
    </person>
    <person id="pedestrian56" depart="181.82">
        <walk edges="984768176#1 -150032873 700236092#1 700236092#0 378479743#6 378479743#5 378479743#4 378479743#3 378479743#2 378479743#1 378479743#0 700440148 4144040#4 4144040#3 -4144040#2 -4144040#1 4195580#0"/>
    </person>
    <person id="pedestrian57" depart="185.15">
        <walk edges="327864908 327864907 218848626#1 -327864903#0 150032770#0 150032770#1 150032770#2 150032770#5 150032770#6 797259708#1 -23401995#1 319910933#0"/>
    </person>
    <person id="pedestrian58" depart="186.76">
        <walk edges="150041593 196656222#0 196656222#1 196656222#2 700440130#0 700440130#1 700440128 4295817#0 4295817#1 4295817#3 -150041551#1 150041551#0"/>
    </person>
    <person id="pedestrian60" depart="188.91">
        <walk edges="365216934 378479743#2 -378479743#1 -378479743#0 253230759#0 -23599727#0 -23599727#1 334960660 -334960656 -624481020#1 -624481020#0"/>
    </person>
    <person id="pedestrian61" depart="189.45">
        <walk edges="255729754#1 255729754#0 150041716#4 150041716#3 -29895519#1 -29895519#2 29895520#0 -29895520#1 -29895520#2 -29895520#3 23101679#1"/>
    </person>
    <person id="pedestrian62" depart="192.82">
        <walk edges="693072006 150032770#1 150032770#0 -327864903#0 -327864903#1 -218848625#1 -1287285290#3 -24507771 13858854 -47492539 -13858853 4195610#2 484022097 -4144040#2 -4144040#1 4195580#0 4195580#1 4195580#2 715835444#1 715835444#2 1153038902#4 -1185258336#0 1185258336#2 1185258336#3"/>
    </person>
    <person id="pedestrian63" depart="195.45">
        <walk edges="-750168167 -4295817#3 150041551#1 -23101679#0 -29895520#3 -1153038902#0 1153038902#2 1153038902#4 715835444#2 715835444#1 4195580#2 4195580#1"/>
    </person>
    <person id="pedestrian64" depart="200.98">
        <walk edges="-28247397#1 28247397#0 4209642 1244524929 4144040#4 4144040#3 484022097 4195610#2 -13858853"/>
    </person>
    <person id="pedestrian65" depart="205.53">
        <walk edges="797259708#1 -149518804#3 -149518804#2 -149518804#0 -984768176#1 -150032873 700236092#1 700236092#0 378479743#6 378479743#5 378479743#4 378479743#3 378479743#2 378479743#1 378479743#0 700440148 255729754#2 255729754#1 255729754#0 150041716#4 150041716#3 -150041716#2 150041716#1 150041594#0 -150041624#0 -150041624#1 -150041624#2"/>
    </person>
    <person id="pedestrian66" depart="205.67">
        <walk edges="715802321 -29895519#2 -29895519#1 -150041716#2 150041716#1 150041594#0 1290085526#0 700440129 700440128 700440130#1 286497563"/>
    </person>
    <person id="pedestrian67" depart="205.98">
        <walk edges="378479753 -23248109#1 378479743#3 378479743#2 378479743#1 378479743#0 700440148 4144040#4 4144040#3 484022097 4195610#2 -409784476"/>
    </person>
    <person id="pedestrian69" depart="210.22">
        <walk edges="23599727#0 253230759#0 -378479743#0 -378479743#1 -378479743#2 -378479743#3 -23248109#1 -23248109#0 -23248118 689756683 -638694840#1 638694840#0 4213561#1 366601855 366601856 256102750#3 -56015406#0"/>
    </person>
    <person id="pedestrian70" depart="210.68">
        <walk edges="-23101679#0 -29895520#3 -29895520#2 -29895520#1 29895520#0 -29895519#2 -29895519#1 150041716#3 150041716#4 255729754#0 255729754#1 255729754#2 700440148 378479743#0 378479743#1 378479743#2 378479743#3"/>
    </person>
    <person id="pedestrian71" depart="213.98">
        <walk edges="-4305021#1 4305021#0 -378491236 255729754#0 255729754#1 255729754#2 700440148 378479743#0 378479743#1 378479743#2 378479743#3 378479743#4 378479743#5 378479743#6 700236092#0 700236092#1 -150032873 -984768176#1 -149518804#0"/>
    </person>
    <person id="pedestrian72" depart="214.53">
        <walk edges="69990704 -150041689 43206316 -150041624#3 150041624#2 881694397 -4295817#0 -4295817#1 -4295817#3 150041551#1 -23101679#0 -29895520#3 -1153038902#0 1153038902#2 1153038902#4 -715835444#2 -715835444#1 -4195580#2 -4195580#1 -4195580#0"/>
    </person>
    <person id="pedestrian73" depart="215.99">
        <walk edges="-4295817#1 -4295817#3 -150041551#3 150041716#1 -150041716#2 -150041716#3"/>
    </person>
    <person id="pedestrian75" depart="229.92">
        <walk edges="319910916 52414187 -23401995#2 -23401995#1 -149518804#3 -149518804#2 -149518804#0 -984768176#1 -150032873 700236092#1 700236092#0 378479743#6 -378479743#6 700440139 700440138 E1.13 -256102751#0"/>
    </person>
    <person id="pedestrian76" depart="237.07">
        <walk edges="881694398 957138676#2"/>
    </person>
    <person id="pedestrian77" depart="239.75">
        <walk edges="-285156957 4195580#2 715835444#1 715835444#2 1153038902#4 1153038902#2 -1153038902#0 -29895520#3 -23101679#0 -150041551#1 4295817#3 4295817#1 4295817#0 700440128 -285295366 285295366"/>
    </person>
    <person id="pedestrian78" depart="240.07">
        <walk edges="624481020#2 -334960656 334960660 -23599727#1 -23599727#0 253230759#0 -378479743#0 -378479743#1 378479743#2 378479743#3 378479743#4 378479743#5 378479743#6 700236092#0 700236092#1 -150032873 -984768176#1 -149518804#0 150032866"/>
    </person>
    <person id="pedestrian80" depart="245.61">
        <walk edges="-624481020#0 -624481020#1 -334960656 334960660 -23599727#1 -23599727#0 253230759#1 -1244524929 465884703#2 255729754#2 -4144040#4 -585579893"/>
    </person>
    <person id="pedestrian81" depart="246.44">
        <walk edges="-150032770#2 -150032770#1 -150032770#0 -327864903#0 -327864903#1 -218848625#1 -1287285290#3 -24507771 13858854 -47492539 -13858853 4195610#2 484022097 4144040#3"/>
    </person>
    <person id="pedestrian83" depart="248.29">
        <walk edges="378479743#2 378479743#3 -23248109#1 -23248109#0 -23248118 689756683 -638694840#1 638694840#0 4213561#1 366601855 366601856 256102750#3 -56015406#0 56015406#1"/>
    </person>
    <person id="pedestrian84" depart="249.67">
        <walk edges="-1287285290#3 -539841923#0 150032863#1 149518802#0 149518802#1 150032842 528567529 -378479743#6 700440139"/>
    </person>
    <person id="pedestrian85" depart="253.52">
        <walk edges="1287285290#1 150032863#4 150032863#3 150032863#2 149518802#0 149518802#1 150032842 528567529"/>
    </person>
    <person id="pedestrian86" depart="258.21">
        <walk edges="715835444#5 715835444#4 715835444#3 715835444#2 715835444#1 4195580#2 4195580#1 4195580#0 -4144040#1 -4144040#2 484022097 4195610#2 -13858853 -47492539 13858854 -24507771 -1287285290#3 -1287285290#2"/>
    </person>
    <person id="pedestrian87" depart="258.90">
        <walk edges="52414187 -23401995#2 -23401995#1 -149518804#3 -149518804#2 -149518804#0 -984768176#1 -150032873 700236092#1 700236092#0 378479743#6 378479743#5 378479743#4 378479743#3 378479743#2 378479743#1 378479743#0 700440148 255729754#2 255729754#1 255729754#0 150041716#4 150041716#3 -150041716#2 150041716#1 150041594#0 1290085526#0 700440129 4295817#0"/>
    </person>
    <person id="pedestrian88" depart="260.37">
        <walk edges="-334960656 334960660 -23599727#1 -23599727#0 253230759#1 1244524930 255729797#1 E4 378491236"/>
    </person>
    <person id="pedestrian89" depart="262.76">
        <walk edges="572523427 150032770#5 -150032770#6 255729814#1 255729814#0 -984768176#1 -150032873 700236092#1 700236092#0 378479743#6 378479743#5 378479743#4 378479743#3 378479743#2 -378479743#1 -378479743#0 253230759#0 -23599727#0 -23599727#1 334960660 -334960656 -624481020#1"/>
    </person>
    <person id="pedestrian90" depart="263.14">
        <walk edges="-1287285290#3 -24507771 13858854 -47492539 -13858853 4195610#2 484022097 -4144040#2 -4144040#1 -4195580#0 -640167405"/>
    </person>
    <person id="pedestrian91" depart="265.37">
        <walk edges="256105105#3 4213561#0 4213561#1 638694840#0 -638694840#1 689756683 -23248118 -23248109#0 -23248109#1 378479743#3 378479743#2 378479743#1 378479743#0 700440148 255729754#2 255729754#1 255729754#0 148061769 715835444#1 715835444#2"/>
    </person>
    <person id="pedestrian94" depart="269.15">
        <walk edges="689756683 -23248118 -23248109#0 -23248109#1 -378479743#4 365216933 149518793 149518802#0 150032863#1 -539841923#0 -1287285290#3 -24507771"/>
    </person>
    <person id="pedestrian95" depart="269.30">
        <walk edges="150041661 -150041636#1 -150041636#0 -378491236 E4 255729797#1 1244524930 253230759#1 253230759#0 -378479743#0 -378479743#1 -378479743#2 -378479743#3 -23248109#1 -23248109#0 -23248118 689756683 -638694840#1 638694840#0 4213561#1 366601855 366601856 256102750#3 -56015406#0 -56015406#1"/>
    </person>
    <person id="pedestrian98" depart="276.08">
        <walk edges="365216929 149518793 365216933 378479743#4 378479743#3 378479743#2 378479743#1 378479743#0 700440148 255729754#2 255729754#1 255729754#0 150041716#4 150041716#3 -29895519#1 -29895519#2 29895520#0 -1185258339 -1185258336#2"/>
    </person>
    <person id="pedestrian99" depart="276.68">
        <walk edges="-750168164 750168164 -750168166#0 715835444#4 715835444#3 715835444#2 715835444#1 148061769 255729754#0 255729754#1 255729754#2 700440148 378479743#0 378479743#1 378479743#2 378479743#3 -23248109#1 -23248109#0 -23248118 689756683 -638694840#1 -638694840#0"/>
    </person>
    <person id="pedestrian100" depart="277.14">
        <walk edges="319910910#0 150032863#3 150032863#2 149518802#0 149518793 365216933 378479743#4 378479743#3 378479743#2 378479743#1 378479743#0 700440148 255729754#2 255729754#1 255729754#0 -378491236 -150041636#0 -150041636#1 150041661 -35771743#1"/>
    </person>
    <person id="pedestrian101" depart="278.13">
        <walk edges="256105105#7 56028463#1 257510647#1 E1.13 700440138 700440139 -378479743#6 -378479743#5 -378479743#4 -378479743#3 -378479743#2 -378479743#1 -378479743#0 253230759#0 253230759#1 -4209642 -28247400#0 -28247400#1 28247400#2"/>
    </person>
    <person id="pedestrian103" depart="280.75">
        <walk edges="-715910744#0 -715910744#1 715835444#1 715835444#2 1153038902#4 -1185258336#0 1185258338#0"/>
    </person>
    <person id="pedestrian104" depart="284.31">
        <walk edges="-150041699#2 150041624#2 -150041624#1 -150041624#0 150041594#0 150041716#1 -150041716#2 150041716#3 150041716#4 255729754#0 255729754#1 255729754#2 700440148 378479743#0 378479743#1 378479743#2 378479743#3 378479743#4 378479743#5 378479743#6 700236092#0 700236092#1 -150032873 984768176#1"/>
    </person>
    <person id="pedestrian105" depart="284.67">
        <walk edges="150032877 -23508142#0 23508141#0 715835444#1 715910744#1"/>
    </person>
    <person id="pedestrian106" depart="285.15">
        <walk edges="-1153038902#4 1153038902#4"/>
    </person>
    <person id="pedestrian107" depart="290.52">
        <walk edges="149518802#1 149518802#0 150032863#1 -539841923#0"/>
    </person>
    <person id="pedestrian108" depart="291.21">
        <walk edges="-715910744#1 4195580#2 4195580#1 4195580#0 -4144040#1 -4144040#2 484022097 4195610#2 -13858853 -47492539 13858854 -24507771 -1287285290#3 -218848625#1 -327864903#1 -327864903#0 -150032770#0 -150032770#1 -150032770#2 -150032770#5 -150032770#6 255729814#1"/>
    </person>
    <person id="pedestrian109" depart="292.52">
        <walk edges="255729754#0 -378491236 -150041636#0 -150041636#1 150041661 957138676#0 -957138676#2 -494297578#1"/>
    </person>
    <person id="pedestrian111" depart="295.45">
        <walk edges="29895520#2 -29895520#1 29895520#0 -29895519#2 -29895519#1 150041716#3 150041716#4 255729754#0 255729754#1 255729754#2 700440148 378479743#0 378479743#1 378479743#2 378479743#3 378479743#4 378479743#5 528567529 150032842"/>
    </person>
    <person id="pedestrian112" depart="297.54">
        <walk edges="-285188048 -4144040#2 484022097 4195610#2 -13858853 -47492539 13858854 -24507771 -1287285290#3 -218848625#1 -327864903#1 -327864903#0 150032770#0 150032770#1 150032770#2 150032770#5 218649572 319910922 319910923#0 319910923#1"/>
    </person>
    <person id="pedestrian113" depart="298.51">
        <walk edges="700440148 4144040#4 4144040#3 -4144040#2 -4144040#1 -4195580#0 640167405"/>
    </person>
    <person id="pedestrian114" depart="298.75">
        <walk edges="4144040#4 700440148 378479743#0 378479743#1 378479743#2 378479743#3 378479743#4 378479743#5 378479743#6 700236092#0 700236092#1 -150032873 -984768176#1 -149518804#0 -149518804#2 -149518804#3 -23401995#1 319910933#0"/>
    </person>
    <person id="pedestrian116" depart="302.76">
        <walk edges="-987109589#1 689756683 -23248118 -23248109#0 -23248109#1 378479743#3 378479743#2 378479743#1 378479743#0 700440148 -4144040#4 -4144040#3"/>
    </person>
    <person id="pedestrian117" depart="302.91">
        <walk edges="806364424 -150032770#0 -327864903#0 -327864903#1 -218848625#1 -1287285290#3 -24507771 13858854 -47492539 -13858853 4195610#2 484022097 -4144040#2 -4144040#1 -4195580#0 -4195580#1 -4195580#2 -715835444#1 23508141#0 -23508142#0 150032877"/>
    </person>
    <person id="pedestrian118" depart="303.60">
        <walk edges="150032770#2 150032770#5 -150032770#6 255729814#1 255729814#0 -984768176#1 -150032873 700236092#1 700236092#0 378479743#6 -378479743#5 -378479743#4 -23248109#1 -23248109#0 -23248118 689756683 -987109589#1 987109590"/>
    </person>
    <person id="pedestrian119" depart="303.60">
        <walk edges="-E1.13 -E1 439271817#2 -150032873 -984768176#1 255729814#0 255729814#1 -150032770#6 -150032770#5 -150032770#2 -150032770#1 -150032770#0 -327864903#0 327864903#1"/>
    </person>
    <person id="pedestrian120" depart="306.52">
        <walk edges="700440128 700440129 1290085526#0 150041594#0 150041716#1 -150041716#2 150041716#3 150041716#4 255729754#0 255729754#1 255729754#2 700440148 378479743#0 378479743#1 378479743#2 378479743#3 -23248109#1 378479753 395456769#1 395456769#0"/>
    </person>
    <person id="pedestrian122" depart="308.84">
        <walk edges="409784476 -409784476 -13858853 -47492539 13858854 -24507771 -1287285290#3 -218848625#1 -327864903#1 -327864903#0 150032770#0 150032770#1 150032770#2 150032770#5 218649572 319910922 319910923#0 319910923#1 319910923#2 319910914"/>
    </person>
    <person id="pedestrian123" depart="314.60">
        <walk edges="256102750#2 366601856 366601855 4213561#1 638694840#0 -638694840#1 689756683 -23248118 -23248109#0 -23248109#1 378479743#3 378479743#2 378479743#1 378479743#0 700440148 255729754#2 255729754#1 255729754#0 150041716#4 150041716#3 -150041716#2 150041716#1 150041594#0 1290085526#0 700440129 4295817#0"/>
    </person>
    <person id="pedestrian124" depart="318.66">
        <walk edges="196656222#1 196656222#2 700440130#0 700440130#1 700440128 700440129 1290085526#0 150041594#0 150041716#1 -150041716#2 150041716#3 150041716#4 255729754#0 255729754#1 255729754#2 700440148 378479743#0 378479743#1 378479743#2 378479743#3 378479743#4 378479743#5 378479743#6 700236092#0 700236092#1 -150032873 -984768176#1 255729814#0 255729814#1 -150032770#6 218649572"/>
    </person>
    <person id="pedestrian125" depart="322.54">
        <walk edges="-984768175 -150032873 700236092#1 700236092#0 378479743#6 378479743#5 378479743#4 378479743#3 378479743#2 378479743#1 378479743#0 700440148 255729754#2 255729754#1 255729754#0 150041716#4 150041716#3 -150041716#2 150041716#1 150041594#0 1290085526#0 700440129 700440128 700440130#1"/>
    </person>
    <person id="pedestrian127" depart="323.98">
        <walk edges="694836606 694832101 715910744#0 255729754#0 255729754#1 255729754#2 700440148 -378479743#0 -378479743#1"/>
    </person>
    <person id="pedestrian130" depart="329.29">
        <walk edges="319910914 319910923#2 319910923#1 319910923#0 319910922 218649572 -150032770#6 255729814#1 255729814#0 -984768176#1 -150032873 700236092#1 700236092#0 378479743#6 378479743#5 378479743#4 378479743#3 378479743#2 378479743#1 378479743#0 700440148 255729754#2 255729754#1 255729754#0 150041716#4 150041716#3 -150041716#2 150041716#1 150041594#0 1290085526#0 700440129 -700440128 -700440130#1 -700440130#0 150041699#1 -150041645#0 359458217#2"/>
    </person>
    <person id="pedestrian131" depart="330.76">
        <walk edges="150041593 196656222#0 196656222#1 196656222#2 700440130#0 700440130#1 700440128 4295817#0 4295817#1 4295817#3 -150041551#1 -23101679#0 -29895520#3 -1153038902#0 1153038902#2 1153038902#4 715835444#2 715835444#1 -715910744#1 694832101 694836606 694836603"/>
    </person>
    <person id="pedestrian132" depart="332.76">